28
06/05/2024 22:57, XYZ structure generated by mol3D Class, molSimplify
Fe 	0.000000	0.000000	0.000000
B 	0.000000	2.100000	0.000000
S 	1.053435	3.045000	1.252737
C 	1.938859	1.868803	2.305678
S 	-1.053435	3.045000	-1.252737
O 	-1.802111	2.050470	-2.143058
O 	-2.062018	3.924878	-0.510543
N 	-0.013581	4.056850	-2.248962
H 	1.233719	1.253641	2.824575
H 	2.571039	1.253644	1.700014
H 	2.535248	2.403803	3.014899
H 	0.658610	3.470438	-2.743612
H 	-0.582101	4.566850	-2.925042
O 	2.080000	0.000000	0.000000
H 	2.715106	0.510071	-0.580058
H 	2.665511	-0.510071	0.580058
O 	-0.000000	-2.080000	0.000000
H 	0.530004	-2.715106	-0.561903
H 	-0.530004	-2.665511	0.561903
O 	-2.080000	0.000000	0.000000
H 	-2.715106	-0.549291	-0.543064
H 	-2.665511	0.549291	0.543064
O 	0.000000	0.000000	2.080000
H 	0.549291	-0.543064	2.715106
H 	-0.549291	0.543064	2.665511
O 	0.000000	0.000000	-2.080000
H 	-0.100325	-0.765882	-2.715106
H 	0.100325	0.765882	-2.665511
