25
06/06/2024 00:18, XYZ structure generated by mol3D Class, molSimplify
Fe 	0.000000	0.000000	0.000000
B 	0.000000	2.100000	0.000000
Cl 	-1.605117	3.007593	0.243877
S 	1.605117	3.067587	-0.243877
O 	2.768696	2.089270	-0.420668
O 	1.485503	3.948504	-1.489652
C 	1.907633	4.109412	1.204980
F 	0.896452	4.959594	1.358616
F 	2.011580	3.343873	2.287590
F 	3.037159	4.790306	1.033363
O 	2.080000	-0.000000	-0.000000
H 	2.715106	-0.281655	-0.719243
H 	2.665511	0.281655	0.719243
O 	-0.000000	-2.080000	0.000000
H 	-0.256382	-2.715106	-0.728634
H 	0.256382	-2.665511	0.728634
O 	-2.080000	0.000000	0.000000
H 	-2.715106	0.230797	-0.737138
H 	-2.665511	-0.230797	0.737138
O 	0.000000	0.000000	2.080000
H 	-0.744744	0.204930	2.715106
H 	0.744744	-0.204930	2.665511
O 	0.000000	-0.000000	-2.080000
H 	0.751442	0.178814	-2.715106
H 	-0.751442	-0.178814	-2.665511
