22
06/06/2024 03:16, XYZ structure generated by mol3D Class, molSimplify
Fe 	0.000000	0.000000	0.000000
B 	0.000000	2.100000	0.000000
O 	-1.116887	2.812827	0.703165
N 	1.116887	2.912787	-0.703165
C 	2.096508	2.287566	-1.319912
S 	3.302708	1.517736	-2.079307
H 	-1.744237	2.141683	1.098130
O 	2.080000	0.000000	0.000000
H 	2.715106	-0.646404	-0.422850
H 	2.665511	0.646404	0.422850
O 	-0.000000	-2.080000	0.000000
H 	-0.631253	-2.715106	-0.445151
H 	0.631253	-2.665511	0.445151
O 	-2.080000	0.000000	0.000000
H 	-2.715106	0.615333	-0.466910
H 	-2.665511	-0.615333	0.466910
O 	0.000000	0.000000	2.080000
H 	-0.488101	0.598663	2.715106
H 	0.488101	-0.598663	2.665511
O 	0.000000	-0.000000	-2.080000
H 	0.674902	0.375695	-2.715106
H 	-0.674902	-0.375695	-2.665511
