25
06/06/2024 03:10, XYZ structure generated by mol3D Class, molSimplify
Fe 	0.000000	0.000000	0.000000
B 	0.000000	2.100000	-0.000000
N 	1.265496	2.875000	-0.447656
O 	1.706957	3.662633	0.582706
N 	-1.265496	2.875000	0.447656
C 	-2.339657	2.217175	0.827629
H 	1.996393	2.212171	-0.706203
H 	0.990388	4.312464	0.836181
H 	-2.339657	1.147175	0.827629
H 	-3.213257	2.752175	1.136655
O 	2.080000	-0.000000	0.000000
H 	2.715106	-0.610626	-0.473050
H 	2.665511	0.610626	0.473050
O 	0.000000	-2.080000	0.000000
H 	-0.593745	-2.715106	-0.494072
H 	0.593745	-2.665511	0.494072
O 	-2.080000	0.000000	0.000000
H 	-2.715106	0.576140	-0.514493
H 	-2.665511	-0.576140	0.514493
O 	0.000000	0.000000	2.080000
H 	-0.534286	0.557833	2.715106
H 	0.534286	-0.557833	2.665511
O 	0.000000	0.000000	-2.080000
H 	0.723532	0.270447	-2.715106
H 	-0.723532	-0.270447	-2.665511
