32
06/06/2024 01:57, XYZ structure generated by mol3D Class, molSimplify
Fe 	0.000000	0.000000	0.000000
B 	0.000000	2.100000	0.000000
N 	1.384383	2.637386	-0.444071
C 	1.620572	4.086308	-0.519834
O 	2.755677	4.526930	-0.883943
C 	0.507206	5.057528	-0.162697
S 	-1.384383	3.307636	0.444071
O 	-2.635969	2.523652	0.845544
O 	-0.937421	4.188577	1.613021
C 	-1.758571	4.349488	-0.987930
F 	-0.670912	5.030790	-1.336820
F 	-2.146993	3.583927	-2.003777
F 	-2.732767	5.199306	-0.675436
H 	2.131511	1.985646	-0.683728
H 	-0.327788	4.897418	-0.812351
H 	0.205913	4.897419	0.851447
H 	0.859741	6.061436	-0.275781
O 	2.080000	-0.000000	0.000000
H 	2.715106	0.242521	0.733364
H 	2.665511	-0.242521	-0.733364
O 	-0.000000	-2.080000	0.000000
H 	0.216780	-2.715106	0.741381
H 	-0.216780	-2.665511	-0.741381
O 	-2.080000	0.000000	0.000000
H 	-2.715106	-0.190774	0.748495
H 	-2.665511	0.190774	-0.748495
O 	0.000000	0.000000	2.080000
H 	0.754697	-0.164535	2.715106
H 	-0.754697	0.164535	2.665511
O 	0.000000	-0.000000	-2.080000
H 	-0.138096	0.759980	-2.715106
H 	0.138096	-0.759980	-2.665511
