25
06/06/2024 01:37, XYZ structure generated by mol3D Class, molSimplify
Fe 	0.000000	0.000000	0.000000
B 	0.000000	2.100000	0.000000
C 	-0.401533	2.900000	-1.326187
O 	-0.401533	4.170900	-1.326187
O 	-0.757893	2.190000	-2.503178
C 	0.401533	2.900000	1.326187
Cl 	0.793590	1.743306	2.621080
Cl 	1.819862	3.923348	0.995277
Cl 	-0.962150	3.923349	1.837583
H 	-1.008851	2.690000	-3.332044
O 	2.080000	-0.000000	-0.000000
H 	2.715106	-0.553213	-0.539069
H 	2.665511	0.553213	0.539069
O 	0.000000	-2.080000	0.000000
H 	-0.534062	-2.715106	-0.558048
H 	0.534062	-2.665511	0.558048
O 	-2.080000	0.000000	0.000000
H 	-2.715106	0.514261	-0.576346
H 	-2.665511	-0.514261	0.576346
O 	0.000000	0.000000	2.080000
H 	-0.670673	0.383195	2.715106
H 	0.670673	-0.383195	2.665511
O 	0.000000	0.000000	-2.080000
H 	0.540383	0.551929	-2.715106
H 	-0.540383	-0.551929	-2.665511
