24
06/06/2024 02:29, XYZ structure generated by mol3D Class, molSimplify
Fe 	0.000000	0.000000	0.000000
B 	0.000000	2.100000	0.000000
N 	1.335050	2.837816	0.275263
O 	1.201419	3.623158	1.389840
C 	-1.335050	2.937779	-0.275263
O 	-2.429704	2.332817	-0.500960
H 	2.076229	2.153931	0.428080
H 	0.474771	4.293632	1.240014
H 	-1.306249	4.007375	-0.269325
O 	2.080000	-0.000000	0.000000
H 	2.715106	0.197625	0.746715
H 	2.665511	-0.197625	-0.746715
O 	0.000000	-2.080000	0.000000
H 	0.171445	-2.715106	0.753158
H 	-0.171445	-2.665511	-0.753158
O 	-2.080000	0.000000	0.000000
H 	-2.715106	-0.145056	0.758682
H 	-2.665511	0.145056	-0.758682
O 	0.000000	0.000000	2.080000
H 	0.763282	-0.118490	2.715106
H 	-0.763282	0.118490	2.665511
O 	0.000000	-0.000000	-2.080000
H 	-0.761075	-0.131926	-2.715106
H 	0.761075	0.131926	-2.665511
