21
06/05/2024 22:53, XYZ structure generated by mol3D Class, molSimplify
Fe 	0.000000	0.000000	0.000000
B 	0.000000	2.100000	0.000000
Cl 	-0.897603	3.230121	1.173343
C 	0.897603	2.714470	-1.173343
O 	1.510917	1.942282	-1.975065
Cl 	1.037190	4.479583	-1.355811
O 	2.080000	0.000000	0.000000
H 	2.715106	0.532937	-0.559123
H 	2.665511	-0.532937	0.559123
O 	-0.000000	-2.080000	0.000000
H 	0.552125	-2.715106	-0.540183
H 	-0.552125	-2.665511	0.540183
O 	-2.080000	0.000000	0.000000
H 	-2.715106	-0.570641	-0.520585
H 	-2.665511	0.570641	0.520585
O 	0.000000	0.000000	2.080000
H 	-0.500353	-0.588461	2.715106
H 	0.500353	0.588461	2.665511
O 	0.000000	-0.000000	-2.080000
H 	-0.763921	-0.114303	-2.715106
H 	0.763921	0.114303	-2.665511
