31
06/06/2024 00:36, XYZ structure generated by mol3D Class, molSimplify
Fe 	0.000000	0.000000	0.000000
B 	-0.000000	2.100000	-0.000000
O 	1.359630	2.581681	0.411570
C 	2.381151	1.645050	0.720791
O 	2.143443	0.398654	0.648836
C 	3.758910	2.133154	1.137849
S 	-1.359630	3.346642	-0.411570
O 	-2.637553	2.598614	-0.798406
O 	-1.633201	4.225399	0.811223
C 	-0.826819	4.385911	-1.794369
F 	0.283729	5.035966	-1.458198
F 	-0.589079	3.622248	-2.857007
F 	-1.783595	5.263177	-2.083992
H 	4.180291	2.725377	0.352605
H 	3.674056	2.725375	2.024964
H 	4.392250	1.292306	1.329566
O 	2.080000	-0.000000	-0.000000
H 	2.715106	-0.117804	0.763388
H 	2.665511	0.117804	-0.763388
O 	0.000000	-2.080000	0.000000
H 	-0.144374	-2.715106	0.758812
H 	0.144374	-2.665511	-0.758812
O 	-2.080000	0.000000	0.000000
H 	-2.715106	0.170769	0.753311
H 	-2.665511	-0.170769	-0.753311
O 	0.000000	0.000000	2.080000
H 	0.746893	0.196955	2.715106
H 	-0.746893	-0.196955	2.665511
O 	0.000000	-0.000000	-2.080000
H 	-0.768217	-0.080518	-2.715106
H 	0.768217	0.080518	-2.665511
