34
06/05/2024 23:06, XYZ structure generated by mol3D Class, molSimplify
Fe 	0.000000	0.000000	0.000000
B 	0.000000	2.100000	-0.000000
N 	-1.218312	1.287213	-0.507537
N 	-1.712196	0.469028	0.542725
O 	1.218312	1.387173	0.507537
C 	2.334442	2.131790	0.972507
C 	3.638544	1.742002	0.715704
C 	4.592013	2.321635	1.585748
C 	4.374281	3.390333	2.330391
C 	3.068950	3.764568	2.490107
C 	2.066873	3.157282	1.772516
H 	-1.951051	1.927771	-0.812790
H 	-2.513926	-0.065837	0.208734
H 	-0.979454	-0.171528	0.847974
H 	3.901107	1.064071	-0.069388
H 	5.556531	1.862114	1.644438
H 	5.176254	3.934109	2.784316
H 	2.824271	4.541537	3.183902
H 	1.061789	3.513938	1.859129
O 	2.080000	-0.000000	-0.000000
H 	2.715106	-0.181788	-0.750728
H 	2.665511	0.181788	0.750728
O 	-0.000000	-2.080000	0.000000
H 	-0.155477	-2.715106	-0.756615
H 	0.155477	-2.665511	0.756615
O 	-2.080000	0.000000	0.000000
H 	-2.715106	0.128977	-0.761581
H 	-2.665511	-0.128977	0.761581
O 	0.000000	0.000000	2.080000
H 	-0.765618	0.102319	2.715106
H 	0.765618	-0.102319	2.665511
O 	0.000000	0.000000	-2.080000
H 	0.075537	-0.768722	-2.715106
H 	-0.075537	0.768722	-2.665511
