25
06/06/2024 00:28, XYZ structure generated by mol3D Class, molSimplify
Fe 	0.000000	0.000000	0.000000
B 	0.000000	2.100000	0.000000
S 	1.361116	3.268533	-0.594976
C 	2.762357	2.300314	-1.207491
C 	-1.361116	2.694448	0.594976
O 	-2.276376	1.908687	0.995057
H 	3.141169	1.683352	-0.419608
H 	2.441323	1.683354	-2.020632
H 	3.532935	2.961864	-1.544329
H 	-1.500783	3.753535	0.656028
O 	2.080000	-0.000000	-0.000000
H 	2.715106	-0.196573	-0.746993
H 	2.665511	0.196573	0.746993
O 	-0.000000	-2.080000	0.000000
H 	-0.170384	-2.715106	-0.753398
H 	0.170384	-2.665511	0.753398
O 	-2.080000	0.000000	0.000000
H 	-2.715106	0.143987	-0.758886
H 	-2.665511	-0.143987	0.758886
O 	0.000000	0.000000	2.080000
H 	-0.763449	0.117414	2.715106
H 	0.763449	-0.117414	2.665511
O 	0.000000	0.000000	-2.080000
H 	0.761260	0.130853	-2.715106
H 	-0.761260	-0.130853	-2.665511
