28
06/05/2024 23:03, XYZ structure generated by mol3D Class, molSimplify
Fe 	0.000000	0.000000	0.000000
B 	0.000000	2.100000	0.000000
C 	1.231304	2.900000	0.635524
C 	1.231304	4.260400	0.635524
C 	-1.231304	2.900000	-0.635524
O 	-2.209344	2.264550	-1.140328
C 	-1.231304	4.420000	-0.635524
H 	2.054739	2.365000	1.060530
H 	2.054739	4.795400	1.060530
H 	0.407869	4.795400	0.210517
H 	-1.183781	4.776669	0.372161
H 	-0.382384	4.776668	-1.180521
H 	-2.127747	4.776663	-1.098212
O 	2.080000	-0.000000	-0.000000
H 	2.715106	-0.413207	-0.652610
H 	2.665511	0.413207	0.652610
O 	-0.000000	-2.080000	0.000000
H 	-0.390179	-2.715106	-0.666633
H 	0.390179	-2.665511	0.666633
O 	-2.080000	0.000000	0.000000
H 	-2.715106	0.268492	-0.724260
H 	-2.665511	-0.268492	0.724260
O 	0.000000	0.000000	2.080000
H 	-0.733189	0.243052	2.715106
H 	0.733189	-0.243052	2.665511
O 	0.000000	0.000000	-2.080000
H 	0.714367	0.293803	-2.715106
H 	-0.714367	-0.293803	-2.665511
