32
06/06/2024 02:22, XYZ structure generated by mol3D Class, molSimplify
Fe 	0.000000	0.000000	0.000000
B 	0.000000	2.100000	0.000000
C 	-0.065972	2.900000	1.384069
C 	1.169859	3.773874	1.523588
C 	-1.309474	3.773871	1.405409
C 	-0.120979	1.912254	2.538076
C 	0.065972	2.900000	-1.384069
N 	0.117966	3.530483	-2.474859
H 	1.208580	4.469195	0.711228
H 	1.125739	4.308872	2.449185
H 	2.045217	3.158714	1.508566
H 	-2.179437	3.158714	1.307195
H 	-1.353594	4.308868	2.331006
H 	-1.270747	4.469190	0.593047
H 	-0.990939	1.297093	2.439862
H 	0.754380	1.297095	2.523054
H 	-0.165098	2.447254	3.463673
O 	2.080000	-0.000000	0.000000
H 	2.715106	-0.752817	0.172934
H 	2.665511	0.752817	-0.172934
O 	-0.000000	-2.080000	0.000000
H 	-0.758394	-2.715106	0.146556
H 	0.758394	-2.665511	-0.146556
O 	-2.080000	0.000000	0.000000
H 	-2.715106	0.763047	0.119999
H 	-2.665511	-0.763047	-0.119999
O 	0.000000	0.000000	2.080000
H 	0.772321	-0.012635	2.715106
H 	-0.772321	0.012635	2.665511
O 	0.000000	-0.000000	-2.080000
H 	-0.146497	-0.758405	-2.715106
H 	0.146497	0.758405	-2.665511
