22
06/05/2024 22:58, XYZ structure generated by mol3D Class, molSimplify
Fe 	0.000000	0.000000	0.000000
B 	0.000000	2.100000	0.000000
C 	-1.171662	2.900000	0.739735
O 	-1.171662	4.170900	0.739735
Cl 	-2.475137	2.010000	1.562689
C 	1.171662	2.900000	-0.739735
N 	2.095054	3.530483	-1.322722
O 	2.080000	-0.000000	0.000000
H 	2.715106	-0.226900	0.738347
H 	2.665511	0.226900	-0.738347
O 	-0.000000	-2.080000	0.000000
H 	-0.252529	-2.715106	0.729979
H 	0.252529	-2.665511	-0.729979
O 	-2.080000	0.000000	0.000000
H 	-2.715106	0.766531	-0.095240
H 	-2.665511	-0.766531	0.095240
O 	0.000000	0.000000	2.080000
H 	-0.121933	0.762740	2.715106
H 	0.121933	-0.762740	2.665511
O 	0.000000	-0.000000	-2.080000
H 	0.148478	0.758020	-2.715106
H 	-0.148478	-0.758020	-2.665511
