25
06/05/2024 23:19, XYZ structure generated by mol3D Class, molSimplify
Fe 	0.000000	0.000000	0.000000
B 	0.000000	2.100000	0.000000
O 	-1.411606	1.618319	0.159220
C 	-2.284246	2.734210	0.257649
F 	-1.945384	3.470338	1.312252
F 	-2.188816	3.470336	-0.845942
F 	-3.535870	2.307119	0.398824
S 	1.411606	0.853358	-0.159220
C 	2.980724	1.738030	-0.336207
N 	4.073876	2.354351	-0.459508
O 	2.080000	0.000000	-0.000000
H 	2.715106	-0.359261	-0.683792
H 	2.665511	0.359261	0.683792
O 	-0.000000	-2.080000	0.000000
H 	-0.335178	-2.715106	-0.695914
H 	0.335178	-2.665511	0.695914
O 	-2.080000	0.000000	0.000000
H 	-2.715106	0.310687	-0.707187
H 	-2.665511	-0.310687	0.707187
O 	0.000000	0.000000	2.080000
H 	-0.717599	0.285817	2.715106
H 	0.717599	-0.285817	2.665511
O 	0.000000	-0.000000	-2.080000
H 	0.727137	0.260599	-2.715106
H 	-0.727137	-0.260599	-2.665511
