29
06/06/2024 00:39, XYZ structure generated by mol3D Class, molSimplify
Fe 	0.000000	0.000000	0.000000
B 	0.000000	2.100000	0.000000
N 	-1.253376	2.837816	0.535887
O 	-1.779740	3.623158	-0.455617
C 	1.253376	2.937779	-0.535887
O 	2.281064	2.332817	-0.975280
N 	1.216230	4.407223	-0.520005
C 	0.027544	5.106959	-0.011777
H 	-1.949213	2.153931	0.833396
H 	-1.097544	4.293632	-0.747289
H 	2.015257	4.941307	-0.861633
H 	0.303358	5.720330	0.820451
H 	-0.383558	5.720328	-0.786163
H 	-0.702403	4.389550	0.300316
O 	2.080000	0.000000	0.000000
H 	2.715106	-0.718609	-0.283270
H 	2.665511	0.718609	0.283270
O 	0.000000	-2.080000	0.000000
H 	-0.708285	-2.715106	-0.308176
H 	0.708285	-2.665511	0.308176
O 	-2.080000	0.000000	0.000000
H 	-2.715106	0.658502	-0.403751
H 	-2.665511	-0.658502	0.403751
O 	0.000000	0.000000	2.080000
H 	-0.426487	0.644010	2.715106
H 	0.426487	-0.644010	2.665511
O 	0.000000	-0.000000	-2.080000
H 	0.448702	0.628734	-2.715106
H 	-0.448702	-0.628734	-2.665511
