21
06/06/2024 02:52, XYZ structure generated by mol3D Class, molSimplify
Fe 	0.000000	0.000000	0.000000
B 	0.000000	2.100000	0.000000
N 	-0.636365	2.982012	1.104353
F 	0.636365	2.702946	-1.104353
H 	-1.360945	3.570879	0.693721
H 	-1.049169	2.384695	1.820737
O 	2.080000	-0.000000	0.000000
H 	2.715106	-0.230644	0.737186
H 	2.665511	0.230644	-0.737186
O 	0.000000	-2.080000	0.000000
H 	-0.256231	-2.715106	0.728688
H 	0.256231	-2.665511	-0.728688
O 	-2.080000	0.000000	0.000000
H 	-2.715106	0.281506	0.719301
H 	-2.665511	-0.281506	-0.719301
O 	0.000000	0.000000	2.080000
H 	0.709039	0.306438	2.715106
H 	-0.709039	-0.306438	2.665511
O 	0.000000	-0.000000	-2.080000
H 	-0.769693	0.064901	-2.715106
H 	0.769693	-0.064901	-2.665511
