29
06/06/2024 00:28, XYZ structure generated by mol3D Class, molSimplify
Fe 	0.000000	0.000000	0.000000
B 	0.000000	2.100000	0.000000
S 	-0.891466	3.268533	1.188242
O 	0.135166	4.150990	1.902085
O 	-1.863973	4.150987	0.402251
O 	-1.758509	2.353806	2.343929
C 	0.891466	2.694448	-1.188242
O 	1.490919	1.908687	-1.987256
O 	1.012864	4.099965	-1.350054
C 	1.804040	4.627538	-2.404618
H 	-2.230184	2.972077	2.972629
H 	2.814068	4.291752	-2.295106
H 	1.416386	4.291753	-3.343699
H 	1.777834	5.696647	-2.369687
O 	2.080000	-0.000000	0.000000
H 	2.715106	0.394819	-0.663896
H 	2.665511	-0.394819	0.663896
O 	-0.000000	-2.080000	0.000000
H 	0.417748	-2.715106	-0.649713
H 	-0.417748	-2.665511	0.649713
O 	-2.080000	0.000000	0.000000
H 	-2.715106	-0.440168	-0.634738
H 	-2.665511	0.440168	0.634738
O 	0.000000	0.000000	2.080000
H 	-0.618989	-0.462052	2.715106
H 	0.618989	0.462052	2.665511
O 	0.000000	0.000000	-2.080000
H 	-0.769172	-0.070813	-2.715106
H 	0.769172	0.070813	-2.665511
