26
06/06/2024 01:34, XYZ structure generated by mol3D Class, molSimplify
Fe 	0.000000	0.000000	0.000000
B 	0.000000	2.100000	-0.000000
C 	-1.185615	2.694448	-0.894957
C 	-2.151785	3.178869	-1.624266
S 	1.185615	3.268533	0.894957
O 	2.217673	2.449860	1.674001
O 	1.902476	4.150986	-0.129574
N 	0.278442	4.283344	2.010661
H 	-2.944665	3.576406	-2.222769
H 	-0.199325	3.695214	2.693480
H 	0.918298	4.913980	2.493653
O 	2.080000	0.000000	0.000000
H 	2.715106	-0.466825	0.615398
H 	2.665511	0.466825	-0.615398
O 	-0.000000	-2.080000	0.000000
H 	-0.488017	-2.715106	0.598731
H 	0.488017	-2.665511	-0.598731
O 	-2.080000	0.000000	0.000000
H 	-2.715106	0.508616	0.581335
H 	-2.665511	-0.508616	-0.581335
O 	0.000000	0.000000	2.080000
H 	0.563230	0.528594	2.715106
H 	-0.563230	-0.528594	2.665511
O 	0.000000	-0.000000	-2.080000
H 	-0.544439	0.547928	-2.715106
H 	0.544439	-0.547928	-2.665511
