26
06/05/2024 23:46, XYZ structure generated by mol3D Class, molSimplify
Fe 	0.000000	0.000000	0.000000
B 	0.000000	2.100000	0.000000
N 	-1.065328	2.837816	0.850414
O 	-1.836801	3.623158	0.034959
C 	1.065328	2.937779	-0.850414
C 	2.000342	2.290214	-1.596803
H 	-1.656766	2.153931	1.322538
H 	-1.256956	4.293632	-0.427906
H 	1.042346	4.007375	-0.832068
H 	2.712780	2.850478	-2.165517
H 	2.023324	1.220618	-1.615149
O 	2.080000	0.000000	0.000000
H 	2.715106	0.735362	0.236393
H 	2.665511	-0.735362	-0.236393
O 	0.000000	-2.080000	0.000000
H 	0.726664	-2.715106	0.261913
H 	-0.726664	-2.665511	-0.261913
O 	-2.080000	0.000000	0.000000
H 	-2.715106	-0.717081	0.287114
H 	-2.665511	0.717081	-0.287114
O 	0.000000	0.000000	2.080000
H 	0.311965	-0.706624	2.715106
H 	-0.311965	0.706624	2.665511
O 	0.000000	-0.000000	-2.080000
H 	-0.768705	0.075716	-2.715106
H 	0.768705	-0.075716	-2.665511
