36
06/05/2024 22:37, XYZ structure generated by mol3D Class, molSimplify
Fe 	0.000000	0.000000	0.000000
B 	0.000000	2.100000	0.000000
S 	-0.647374	0.853358	-1.264472
C 	-1.366984	1.738030	-2.670039
C 	-1.330686	1.158876	-3.927747
C 	-1.650150	2.050531	-4.978911
C 	-2.272299	3.204410	-4.819192
C 	-2.333996	3.690443	-3.542706
C 	-1.919721	2.929719	-2.476137
O 	0.647374	1.618319	1.264472
C 	1.133761	2.554950	2.214499
O 	1.020579	3.801346	1.993428
C 	1.789766	2.066846	3.495831
F 	0.922732	1.330718	4.185226
F 	2.855973	1.330721	3.195461
F 	2.164601	3.112012	4.227971
H 	-1.083489	0.130499	-4.089716
H 	-1.368031	1.770427	-5.972314
H 	-2.704835	3.730653	-5.644346
H 	-2.710307	4.677413	-3.371885
H 	-2.043628	3.300941	-1.480275
O 	2.080000	-0.000000	0.000000
H 	2.715106	-0.683550	0.359721
H 	2.665511	0.683550	-0.359721
O 	-0.000000	-2.080000	0.000000
H 	-0.695688	-2.715106	0.335647
H 	0.695688	-2.665511	-0.335647
O 	-2.080000	0.000000	0.000000
H 	-2.715106	0.706978	0.311163
H 	-2.665511	-0.706978	-0.311163
O 	0.000000	0.000000	2.080000
H 	-0.267276	0.724709	2.715106
H 	0.267276	-0.724709	2.665511
O 	0.000000	-0.000000	-2.080000
H 	0.292405	0.714940	-2.715106
H 	-0.292405	-0.714940	-2.665511
