25
06/05/2024 22:46, XYZ structure generated by mol3D Class, molSimplify
Fe 	0.000000	0.000000	0.000000
B 	0.000000	2.100000	0.000000
N 	-0.516542	2.912787	1.214521
C 	-1.642125	3.759782	0.794327
O 	0.516542	2.812827	-1.214521
H 	-0.827210	2.272229	1.944981
H 	-2.430744	3.143264	0.416326
H 	-1.998707	4.320865	1.632739
H 	-1.316223	4.431737	0.028061
H 	0.806681	2.141683	-1.896712
O 	2.080000	-0.000000	-0.000000
H 	2.715106	-0.601142	-0.485045
H 	2.665511	0.601142	0.485045
O 	-0.000000	-2.080000	0.000000
H 	-0.583848	-2.715106	-0.505729
H 	0.583848	-2.665511	0.505729
O 	-2.080000	0.000000	0.000000
H 	-2.715106	0.565842	-0.525797
H 	-2.665511	-0.565842	0.525797
O 	0.000000	0.000000	2.080000
H 	-0.699479	0.327673	2.715106
H 	0.699479	-0.327673	2.665511
O 	0.000000	0.000000	-2.080000
H 	-0.586540	0.502604	-2.715106
H 	0.586540	-0.502604	-2.665511
