25
06/06/2024 01:08, XYZ structure generated by mol3D Class, molSimplify
Fe 	0.000000	0.000000	0.000000
B 	0.000000	2.100000	0.000000
O 	-0.907987	2.776364	0.983916
C 	-1.603904	1.794829	1.738029
F 	-2.325318	1.035310	0.918521
F 	-0.729218	1.035313	2.391450
F 	-2.408986	2.394539	2.610435
C 	0.907987	2.976053	-0.983916
O 	1.677294	2.402992	-1.817556
H 	0.867506	4.044387	-0.940050
O 	2.080000	0.000000	0.000000
H 	2.715106	0.550926	-0.541406
H 	2.665511	-0.550926	0.541406
O 	-0.000000	-2.080000	0.000000
H 	0.569486	-2.715106	-0.521849
H 	-0.569486	-2.665511	0.521849
O 	-2.080000	0.000000	0.000000
H 	-2.715106	-0.658605	0.403584
H 	-2.665511	0.658605	-0.403584
O 	0.000000	0.000000	2.080000
H 	0.728122	0.257833	2.715106
H 	-0.728122	-0.257833	2.665511
O 	0.000000	-0.000000	-2.080000
H 	-0.144257	-0.758834	-2.715106
H 	0.144257	0.758834	-2.665511
