24
06/05/2024 23:30, XYZ structure generated by mol3D Class, molSimplify
Fe 	0.000000	0.000000	0.000000
B 	0.000000	2.100000	-0.000000
C 	1.371104	2.900000	0.200182
O 	1.371104	4.170900	0.200182
C 	-1.371104	2.900000	-0.200182
Cl 	-2.709856	1.743306	-0.395640
Cl 	-1.674375	3.923348	1.224313
Cl 	-1.254434	3.923349	-1.651921
H 	2.288030	2.365000	0.334053
O 	2.080000	-0.000000	-0.000000
H 	2.715106	0.172608	0.752892
H 	2.665511	-0.172608	-0.752892
O 	0.000000	-2.080000	0.000000
H 	0.146228	-2.715106	0.758457
H 	-0.146228	-2.665511	-0.758457
O 	-2.080000	0.000000	0.000000
H 	-2.715106	0.121999	0.762729
H 	-2.665511	-0.121999	-0.762729
O 	0.000000	0.000000	2.080000
H 	0.758007	0.148543	2.715106
H 	-0.758007	-0.148543	2.665511
O 	0.000000	-0.000000	-2.080000
H 	-0.752361	0.174907	-2.715106
H 	0.752361	-0.174907	-2.665511
