33
06/06/2024 00:44, XYZ structure generated by mol3D Class, molSimplify
Fe 	0.000000	0.000000	0.000000
B 	0.000000	2.100000	-0.000000
N 	-1.305884	2.912787	-0.191167
C 	-1.264601	4.382195	-0.185123
C 	-2.107826	5.164073	0.587018
C 	-2.018246	6.548918	0.310921
C 	-1.014400	7.121857	-0.327867
C 	-0.176950	6.288688	-1.016314
C 	-0.285615	4.923914	-0.900223
O 	1.305884	2.812827	0.191167
C 	2.347467	1.859803	0.343643
N 	3.272397	1.013513	0.479042
H 	-2.193885	2.428064	-0.321160
H 	-2.767140	4.757695	1.325302
H 	-2.819579	7.175526	0.642777
H 	-0.864486	8.181112	-0.307753
H 	0.573844	6.705478	-1.654667
H 	0.425076	4.291890	-1.390492
O 	2.080000	0.000000	0.000000
H 	2.715106	-0.332955	0.696980
H 	2.665511	0.332955	-0.696980
O 	0.000000	-2.080000	0.000000
H 	-0.357076	-2.715106	0.684935
H 	0.357076	-2.665511	-0.684935
O 	-2.080000	0.000000	0.000000
H 	-2.715106	0.380763	0.672056
H 	-2.665511	-0.380763	-0.672056
O 	0.000000	0.000000	2.080000
H 	0.658358	0.403985	2.715106
H 	-0.658358	-0.403985	2.665511
O 	0.000000	0.000000	-2.080000
H 	-0.718502	0.283540	-2.715106
H 	0.718502	-0.283540	-2.665511
