28
06/06/2024 02:47, XYZ structure generated by mol3D Class, molSimplify
Fe 	0.000000	0.000000	0.000000
B 	0.000000	2.100000	0.000000
N 	-1.342336	2.875000	0.003020
C 	-1.342336	4.345000	0.003020
O 	-2.442965	4.980450	0.005496
C 	-0.025981	5.105000	0.000058
N 	1.342336	2.875000	-0.003020
C 	2.481719	2.217175	-0.005583
O 	3.582348	1.581725	-0.008060
H 	-2.225680	2.365000	0.005007
H 	0.537070	4.846508	0.872444
H 	0.533137	4.846509	-0.874853
H 	-0.221505	6.156984	0.000498
O 	2.080000	-0.000000	0.000000
H 	2.715106	-0.015704	0.772265
H 	2.665511	0.015704	-0.772265
O 	-0.000000	-2.080000	0.000000
H 	-0.042646	-2.715106	0.771246
H 	0.042646	-2.665511	-0.771246
O 	-2.080000	0.000000	0.000000
H 	-2.715106	0.069536	0.769288
H 	-2.665511	-0.069536	-0.769288
O 	0.000000	0.000000	2.080000
H 	0.766393	0.096342	2.715106
H 	-0.766393	-0.096342	2.665511
O 	0.000000	0.000000	-2.080000
H 	0.123030	0.762564	-2.715106
H 	-0.123030	-0.762564	-2.665511
