39
06/06/2024 03:32, XYZ structure generated by mol3D Class, molSimplify
Fe 	0.000000	0.000000	0.000000
B 	0.000000	2.100000	0.000000
N 	-0.790888	2.875000	-1.084607
C 	0.133030	3.720125	-1.854697
C 	-1.449193	1.919746	-1.987393
N 	0.790888	2.875000	1.084607
C 	1.540956	2.140000	2.113234
C 	1.518260	2.568252	3.430295
C 	2.548832	2.019314	4.229445
C 	3.250514	0.946096	3.913436
C 	3.177352	0.533154	2.612061
C 	2.287894	1.108587	1.737056
H 	0.872335	3.104968	-2.323643
H 	-0.412937	4.255123	-2.603428
H 	0.612202	4.415444	-1.197563
H 	-0.709890	1.304585	-2.456336
H 	-2.121705	1.304587	-1.426851
H 	-1.995161	2.454746	-2.736121
H 	0.790888	3.895000	1.084607
H 	0.787675	3.252143	3.809027
H 	2.775400	2.507719	5.154122
H 	3.844351	0.427591	4.636906
H 	3.822035	-0.249381	2.270121
H 	2.196286	0.722082	0.743515
O 	2.080000	0.000000	0.000000
H 	2.715106	0.214358	-0.742085
H 	2.665511	-0.214358	0.742085
O 	-0.000000	-2.080000	0.000000
H 	0.240126	-2.715106	-0.734152
H 	-0.240126	-2.665511	0.734152
O 	-2.080000	0.000000	0.000000
H 	-2.715106	-0.387517	-0.668184
H 	-2.665511	0.387517	0.668184
O 	0.000000	0.000000	2.080000
H 	-0.052377	-0.770647	2.715106
H 	0.052377	0.770647	2.665511
O 	0.000000	-0.000000	-2.080000
H 	-0.593835	-0.493963	-2.715106
H 	0.593835	0.493963	-2.665511
