25
06/05/2024 23:19, XYZ structure generated by mol3D Class, molSimplify
Fe 	0.000000	0.000000	0.000000
B 	0.000000	2.100000	0.000000
O 	-1.100247	1.387173	0.728926
C 	-1.977812	2.340197	1.310324
N 	1.100247	1.287213	-0.728926
N 	2.032449	1.891168	-1.346522
N 	2.964652	2.495123	-1.964117
H 	-1.433506	2.953502	1.997702
H 	-2.398541	2.953500	0.541072
H 	-2.762655	1.831714	1.830291
O 	2.080000	0.000000	0.000000
H 	2.715106	0.568394	0.523038
H 	2.665511	-0.568394	-0.523038
O 	-0.000000	-2.080000	0.000000
H 	0.549794	-2.715106	0.542556
H 	-0.549794	-2.665511	-0.542556
O 	-2.080000	0.000000	0.000000
H 	-2.715106	-0.530524	0.561413
H 	-2.665511	0.530524	-0.561413
O 	0.000000	0.000000	2.080000
H 	0.579586	-0.510608	2.715106
H 	-0.579586	0.510608	2.665511
O 	0.000000	0.000000	-2.080000
H 	-0.490069	0.597053	-2.715106
H 	0.490069	-0.597053	-2.665511
