25
06/06/2024 02:20, XYZ structure generated by mol3D Class, molSimplify
Fe 	0.000000	0.000000	0.000000
B 	0.000000	2.100000	-0.000000
C 	-1.304804	2.937779	0.394477
C 	-1.269017	4.297665	0.383658
N 	1.304804	2.837816	-0.394477
O 	2.422043	2.120468	-0.732248
O 	1.337060	4.063503	-0.404229
H 	-2.205540	2.428447	0.666794
H 	-2.141605	4.857929	0.647464
H 	-0.368281	4.806996	0.111341
O 	2.080000	0.000000	0.000000
H 	2.715106	-0.513653	-0.576889
H 	2.665511	0.513653	0.576889
O 	-0.000000	-2.080000	0.000000
H 	-0.493207	-2.715106	-0.594464
H 	0.493207	-2.665511	0.594464
O 	-2.080000	0.000000	0.000000
H 	-2.715106	0.472160	-0.611314
H 	-2.665511	-0.472160	0.611314
O 	0.000000	0.000000	2.080000
H 	-0.627420	0.450537	2.715106
H 	0.627420	-0.450537	2.665511
O 	0.000000	-0.000000	-2.080000
H 	0.451454	0.626761	-2.715106
H 	-0.451454	-0.626761	-2.665511
