36
06/05/2024 23:37, XYZ structure generated by mol3D Class, molSimplify
Fe 	0.000000	0.000000	0.000000
B 	0.000000	2.100000	0.000000
N 	0.334734	2.875000	-1.299934
C 	1.516485	3.720125	-1.076044
N 	-0.334734	2.875000	1.299934
C 	-0.652191	2.140000	2.532775
C 	-1.637810	2.564959	3.408291
C 	-1.520310	2.023612	4.710285
C 	-0.803377	0.957595	5.016277
C 	0.105516	0.547031	4.080970
C 	0.139310	1.116340	2.830914
H 	0.528062	2.212171	-2.050721
H 	2.348404	3.104968	-0.803294
H 	1.747561	4.255123	-1.973419
H 	1.313676	4.415444	-0.288453
H 	-0.334734	3.895000	1.299934
H 	-2.417328	3.241257	3.125675
H 	-2.049111	2.511915	5.502011
H 	-0.927119	0.442861	5.946135
H 	0.800478	-0.228777	4.326020
H 	0.809496	0.731327	2.090971
O 	2.080000	0.000000	0.000000
H 	2.715106	0.078213	-0.768455
H 	2.665511	-0.078213	0.768455
O 	-0.000000	-2.080000	0.000000
H 	0.104984	-2.715106	-0.765257
H 	-0.104984	-2.665511	0.765257
O 	-2.080000	0.000000	0.000000
H 	-2.715106	-0.131627	-0.761127
H 	-2.665511	0.131627	0.761127
O 	0.000000	0.000000	2.080000
H 	0.667665	-0.388411	2.715106
H 	-0.667665	0.388411	2.665511
O 	0.000000	0.000000	-2.080000
H 	0.733830	0.241107	-2.715106
H 	-0.733830	-0.241107	-2.665511
