36
06/05/2024 23:24, XYZ structure generated by mol3D Class, molSimplify
Fe 	0.000000	0.000000	0.000000
B 	0.000000	2.100000	0.000000
C 	-0.121822	2.900000	-1.380275
C 	-1.365168	3.773874	-1.351372
C 	1.107367	3.773871	-1.569596
C 	-0.223395	1.912254	-2.531119
C 	0.121822	2.900000	1.380275
O 	0.218587	2.264550	2.476645
C 	0.121822	4.420000	1.380275
H 	-1.293666	4.469195	-0.541239
H 	-1.446637	4.308872	-2.274432
H 	-2.230453	3.158714	-1.218100
H 	1.982621	3.158714	-1.589943
H 	1.025900	4.308868	-2.492657
H 	1.178865	4.469190	-0.759461
H 	0.651855	1.297093	-2.551465
H 	-1.088680	1.297095	-2.397847
H 	-0.304864	2.447254	-3.454178
H 	0.947743	4.776669	0.801015
H 	-0.792792	4.776668	0.954636
H 	0.210514	4.776663	2.385176
O 	2.080000	-0.000000	-0.000000
H 	2.715106	-0.086303	-0.767588
H 	2.665511	0.086303	0.767588
O 	-0.000000	-2.080000	0.000000
H 	-0.059462	-2.715106	-0.770133
H 	0.059462	-2.665511	0.770133
O 	-2.080000	0.000000	0.000000
H 	-2.715106	0.032548	-0.771739
H 	-2.665511	-0.032548	0.771739
O 	0.000000	0.000000	2.080000
H 	-0.772404	0.005595	2.715106
H 	0.772404	-0.005595	2.665511
O 	0.000000	0.000000	-2.080000
H 	-0.771645	0.034702	-2.715106
H 	0.771645	-0.034702	-2.665511
