24
06/06/2024 03:31, XYZ structure generated by mol3D Class, molSimplify
Fe 	0.000000	0.000000	0.000000
B 	0.000000	2.100000	0.000000
Cl 	-1.447968	3.007593	-0.734345
S 	1.447968	3.067587	0.734345
O 	2.497628	2.089270	1.266686
O 	2.074608	3.948504	-0.348977
N 	0.868613	4.080632	2.051800
H 	0.450976	3.493527	2.773802
H 	1.650057	4.602822	2.448113
O 	2.080000	-0.000000	0.000000
H 	2.715106	-0.058328	-0.770219
H 	2.665511	0.058328	0.770219
O 	-0.000000	-2.080000	0.000000
H 	-0.031412	-2.715106	-0.771786
H 	0.031412	-2.665511	0.771786
O 	-2.080000	0.000000	0.000000
H 	-2.715106	0.004458	-0.772412
H 	-2.665511	-0.004458	0.772412
O 	0.000000	0.000000	2.080000
H 	-0.772097	-0.022502	2.715106
H 	0.772097	0.022502	2.665511
O 	0.000000	0.000000	-2.080000
H 	0.772289	-0.014460	-2.715106
H 	-0.772289	0.014460	-2.665511
