20
06/06/2024 02:53, XYZ structure generated by mol3D Class, molSimplify
Fe 	0.000000	0.000000	0.000000
B 	0.000000	2.100000	0.000000
O 	-0.237450	2.918414	-1.234429
F 	0.237450	2.738672	1.234429
H 	-0.387384	2.310170	-2.013890
O 	2.080000	-0.000000	0.000000
H 	2.715106	-0.522586	-0.568809
H 	2.665511	0.522586	0.568809
O 	-0.000000	-2.080000	0.000000
H 	-0.502417	-2.715106	-0.586700
H 	0.502417	-2.665511	0.586700
O 	-2.080000	0.000000	0.000000
H 	-2.715106	0.481635	-0.603877
H 	-2.665511	-0.481635	0.603877
O 	0.000000	0.000000	2.080000
H 	-0.620318	0.460267	2.715106
H 	0.620318	-0.460267	2.665511
O 	0.000000	0.000000	-2.080000
H 	-0.530969	-0.560991	-2.715106
H 	0.530969	0.560991	-2.665511
