25
06/06/2024 01:11, XYZ structure generated by mol3D Class, molSimplify
Fe 	0.000000	0.000000	0.000000
B 	0.000000	2.100000	0.000000
C 	-1.376509	2.900000	0.158818
O 	-1.376509	4.170900	0.158818
O 	-2.598161	2.190000	0.299769
C 	1.376509	2.900000	-0.158818
O 	2.469887	2.264550	-0.284969
O 	1.376509	4.320000	-0.158818
H 	-3.458479	2.690000	0.399030
H 	2.236827	4.820000	-0.258079
O 	2.080000	-0.000000	-0.000000
H 	2.715106	-0.058693	0.770192
H 	2.665511	0.058693	-0.770192
O 	-0.000000	-2.080000	0.000000
H 	-0.085536	-2.715106	0.767674
H 	0.085536	-2.665511	-0.767674
O 	-2.080000	0.000000	0.000000
H 	-2.715106	0.112276	0.764221
H 	-2.665511	-0.112276	-0.764221
O 	0.000000	0.000000	2.080000
H 	0.759837	0.138878	2.715106
H 	-0.759837	-0.138878	2.665511
O 	0.000000	-0.000000	-2.080000
H 	-0.754528	0.165311	-2.715106
H 	0.754528	-0.165311	-2.665511
