24
06/05/2024 23:12, XYZ structure generated by mol3D Class, molSimplify
Fe 	0.000000	0.000000	0.000000
B 	0.000000	2.100000	0.000000
N 	-1.069703	2.837816	-0.844904
O 	-0.450282	3.623158	-1.781097
C 	1.069703	2.937779	0.844904
O 	1.946790	2.332817	1.537671
Cl 	1.031314	4.717106	0.814583
H 	-1.663569	2.153931	-1.313970
H 	0.131939	4.293632	-1.321225
O 	2.080000	-0.000000	-0.000000
H 	2.715106	-0.385449	-0.669380
H 	2.665511	0.385449	0.669380
O 	-0.000000	-2.080000	0.000000
H 	-0.361853	-2.715106	-0.682424
H 	0.361853	-2.665511	0.682424
O 	-2.080000	0.000000	0.000000
H 	-2.715106	0.337816	-0.694637
H 	-2.665511	-0.337816	0.694637
O 	0.000000	0.000000	2.080000
H 	-0.706003	0.313368	2.715106
H 	0.706003	-0.313368	2.665511
O 	0.000000	0.000000	-2.080000
H 	0.288538	-0.716509	-2.715106
H 	-0.288538	0.716509	-2.665511
