25
06/05/2024 23:26, XYZ structure generated by mol3D Class, molSimplify
Fe 	0.000000	0.000000	0.000000
B 	-0.000000	2.100000	-0.000000
N 	-1.262661	1.287213	-0.384141
N 	-2.332472	1.891168	-0.709610
N 	-3.402282	2.495123	-1.035080
O 	1.262661	1.387173	0.384141
C 	2.269769	2.340197	0.690534
F 	2.497701	3.102529	-0.375204
F 	1.865555	3.102526	1.702644
F 	3.389329	1.708157	1.031139
O 	2.080000	0.000000	0.000000
H 	2.715106	-0.238438	-0.734702
H 	2.665511	0.238438	0.734702
O 	-0.000000	-2.080000	0.000000
H 	-0.212652	-2.715106	-0.742576
H 	0.212652	-2.665511	0.742576
O 	-2.080000	0.000000	0.000000
H 	-2.715106	0.186606	-0.749545
H 	-2.665511	-0.186606	0.749545
O 	0.000000	0.000000	2.080000
H 	-0.755601	0.160334	2.715106
H 	0.755601	-0.160334	2.665511
O 	0.000000	-0.000000	-2.080000
H 	0.133866	-0.760736	-2.715106
H 	-0.133866	0.760736	-2.665511
