31
06/06/2024 03:10, XYZ structure generated by mol3D Class, molSimplify
Fe 	0.000000	0.000000	0.000000
B 	-0.000000	2.100000	-0.000000
N 	-1.317893	2.837816	-0.348258
C 	-1.108963	3.680482	-1.534497
C 	-2.372337	1.852216	-0.626899
C 	1.317893	2.937779	0.348258
C 	2.474579	2.290214	0.653917
H 	-0.814634	3.067115	-2.360361
H 	-2.018736	4.189811	-1.774910
H 	-0.341442	4.397890	-1.331672
H 	-2.078008	1.238845	-1.452760
H 	-2.524416	1.238848	0.236554
H 	-3.282109	2.361548	-0.867309
H 	1.289463	4.007375	0.340745
H 	3.355920	2.850478	0.886814
H 	2.503009	1.220618	0.661429
O 	2.080000	0.000000	0.000000
H 	2.715106	-0.216785	0.741380
H 	2.665511	0.216785	-0.741380
O 	0.000000	-2.080000	0.000000
H 	-0.242527	-2.715106	0.733363
H 	0.242527	-2.665511	-0.733363
O 	-2.080000	0.000000	0.000000
H 	-2.715106	0.310483	-0.707277
H 	-2.665511	-0.310483	0.707277
O 	0.000000	0.000000	2.080000
H 	-0.717681	0.285610	2.715106
H 	0.717681	-0.285610	2.665511
O 	0.000000	0.000000	-2.080000
H 	0.525389	-0.566221	-2.715106
H 	-0.525389	0.566221	-2.665511
