23
06/06/2024 00:58, XYZ structure generated by mol3D Class, molSimplify
Fe 	0.000000	0.000000	0.000000
B 	0.000000	2.100000	0.000000
N 	1.129546	2.912787	0.682645
O 	-1.129546	2.812827	-0.682645
C 	-2.030480	1.859803	-1.227128
N 	-2.830513	1.013513	-1.710630
H 	0.730761	3.500498	1.414743
H 	1.808897	2.272229	1.093213
O 	2.080000	0.000000	-0.000000
H 	2.715106	0.138960	0.759822
H 	2.665511	-0.138960	-0.759822
O 	0.000000	-2.080000	0.000000
H 	0.112358	-2.715106	0.764209
H 	-0.112358	-2.665511	-0.764209
O 	-2.080000	0.000000	0.000000
H 	-2.715106	0.637612	0.435994
H 	-2.665511	-0.637612	-0.435994
O 	0.000000	0.000000	2.080000
H 	0.413476	0.652440	2.715106
H 	-0.413476	-0.652440	2.665511
O 	0.000000	-0.000000	-2.080000
H 	-0.390454	0.666472	-2.715106
H 	0.390454	-0.666472	-2.665511
