32
06/06/2024 00:09, XYZ structure generated by mol3D Class, molSimplify
Fe 	0.000000	0.000000	0.000000
B 	0.000000	2.100000	-0.000000
O 	0.630402	2.850000	1.135823
C 	1.227182	2.140000	2.211068
O 	1.227182	0.869100	2.211068
C 	1.865990	2.900000	3.362035
O 	-0.630402	2.850000	-1.135823
S 	-1.261141	1.738786	-2.272252
O 	-0.129196	0.858904	-2.807777
O 	-2.314399	0.858907	-1.594951
C 	-2.021826	2.643786	-3.642812
H 	2.657378	3.515161	2.987628
H 	1.129614	3.515159	3.835565
H 	2.260662	2.204679	4.073135
H 	-2.813214	3.258947	-3.268404
H 	-1.285450	3.258945	-4.116341
H 	-2.416498	1.948465	-4.353911
O 	2.080000	0.000000	0.000000
H 	2.715106	0.120011	0.763045
H 	2.665511	-0.120011	-0.763045
O 	-0.000000	-2.080000	0.000000
H 	0.093308	-2.715106	0.766768
H 	-0.093308	-2.665511	-0.766768
O 	-2.080000	0.000000	0.000000
H 	-2.715106	0.583503	0.506127
H 	-2.665511	-0.583503	-0.506127
O 	0.000000	0.000000	2.080000
H 	-0.200723	0.745889	2.715106
H 	0.200723	-0.745889	2.665511
O 	0.000000	0.000000	-2.080000
H 	0.758011	0.148523	-2.715106
H 	-0.758011	-0.148523	-2.665511
