27
06/06/2024 02:42, XYZ structure generated by mol3D Class, molSimplify
Fe 	0.000000	0.000000	0.000000
B 	0.000000	2.100000	0.000000
N 	-1.362422	2.837816	0.043972
N 	-1.497403	3.651820	-1.111701
C 	1.362422	2.937779	-0.043972
O 	2.479520	2.332817	-0.080026
N 	1.322044	4.407223	-0.042669
H 	-2.118798	2.153931	0.068384
H 	-2.393965	4.137349	-1.082766
H 	-0.741025	4.335704	-1.136108
H 	0.425482	4.892754	-0.013732
H 	2.190588	4.941307	-0.070701
O 	2.080000	0.000000	0.000000
H 	2.715106	0.302488	-0.710733
H 	2.665511	-0.302488	0.710733
O 	-0.000000	-2.080000	0.000000
H 	0.327108	-2.715106	-0.699743
H 	-0.327108	-2.665511	0.699743
O 	-2.080000	0.000000	0.000000
H 	-2.715106	0.301132	-0.711308
H 	-2.665511	-0.301132	0.711308
O 	0.000000	0.000000	2.080000
H 	-0.721384	0.276124	2.715106
H 	0.721384	-0.276124	2.665511
O 	0.000000	-0.000000	-2.080000
H 	0.041754	-0.771295	-2.715106
H 	-0.041754	0.771295	-2.665511
