27
06/06/2024 03:03, XYZ structure generated by mol3D Class, molSimplify
Fe 	0.000000	0.000000	0.000000
B 	0.000000	2.100000	-0.000000
O 	-1.114509	1.618319	-0.880826
C 	-1.803486	2.734210	-1.425342
S 	1.114509	0.853358	0.880826
C 	2.353378	1.738030	1.859936
H 	-2.207269	3.326433	-0.630905
H 	-1.123845	3.326431	-2.001763
H 	-2.598502	2.390611	-2.053664
H 	2.945793	2.352407	1.214580
H 	1.862368	2.352405	2.585437
H 	2.984344	1.032259	2.358605
O 	2.080000	0.000000	0.000000
H 	2.715106	-0.728097	0.257905
H 	2.665511	0.728097	-0.257905
O 	0.000000	-2.080000	0.000000
H 	-0.736654	-2.715106	0.232337
H 	0.736654	-2.665511	-0.232337
O 	-2.080000	0.000000	0.000000
H 	-2.715106	0.744314	0.206487
H 	-2.665511	-0.744314	-0.206487
O 	0.000000	0.000000	2.080000
H 	0.180385	0.751067	2.715106
H 	-0.180385	-0.751067	2.665511
O 	0.000000	-0.000000	-2.080000
H 	-0.154063	0.756904	-2.715106
H 	0.154063	-0.756904	-2.665511
