24
06/06/2024 00:20, XYZ structure generated by mol3D Class, molSimplify
Fe 	0.000000	0.000000	0.000000
B 	0.000000	2.100000	0.000000
C 	1.318629	2.900000	-0.425696
O 	1.318629	4.170900	-0.425696
C 	-1.318629	2.900000	0.425696
O 	-2.366033	2.264550	0.763831
O 	-1.318629	4.320000	0.425696
H 	2.200463	2.365000	-0.710379
H 	-2.142773	4.820000	0.691755
O 	2.080000	-0.000000	0.000000
H 	2.715106	-0.651508	-0.414942
H 	2.665511	0.651508	0.414942
O 	-0.000000	-2.080000	0.000000
H 	-0.636630	-2.715106	-0.437427
H 	0.636630	-2.665511	0.437427
O 	-2.080000	0.000000	0.000000
H 	-2.715106	0.604566	-0.480770
H 	-2.665511	-0.604566	0.480770
O 	0.000000	0.000000	2.080000
H 	-0.501576	0.587419	2.715106
H 	0.501576	-0.587419	2.665511
O 	0.000000	-0.000000	-2.080000
H 	0.521771	0.569556	-2.715106
H 	-0.521771	-0.569556	-2.665511
