33
06/06/2024 02:49, XYZ structure generated by mol3D Class, molSimplify
Fe 	0.000000	0.000000	0.000000
B 	0.000000	2.100000	0.000000
C 	1.429050	2.694448	-0.405520
C 	2.110464	2.156848	-1.484977
C 	3.465474	2.556489	-1.564259
C 	3.977320	3.597830	-0.933674
C 	3.224893	4.125995	0.078426
C 	1.939073	3.696092	0.301464
S 	-1.429050	3.268533	0.405520
C 	-2.900229	2.300314	0.822995
H 	1.653618	1.499023	-2.194524
H 	4.121033	1.974502	-2.177801
H 	4.929641	4.006260	-1.200452
H 	3.643408	4.885030	0.705809
H 	1.343323	4.172757	1.051645
H 	-3.169059	1.683352	-0.008864
H 	-2.692062	1.683354	1.672069
H 	-3.709268	2.961864	1.052575
O 	2.080000	0.000000	0.000000
H 	2.715106	0.533189	0.558882
H 	2.665511	-0.533189	-0.558882
O 	0.000000	-2.080000	0.000000
H 	0.513360	-2.715106	0.577149
H 	-0.513360	-2.665511	-0.577149
O 	-2.080000	0.000000	0.000000
H 	-2.715106	-0.004688	-0.772410
H 	-2.665511	0.004688	0.772410
O 	0.000000	0.000000	2.080000
H 	-0.771776	-0.031641	2.715106
H 	0.771776	0.031641	2.665511
O 	0.000000	-0.000000	-2.080000
H 	-0.703725	0.318450	-2.715106
H 	0.703725	-0.318450	-2.665511
