22
06/05/2024 23:37, XYZ structure generated by mol3D Class, molSimplify
Fe 	0.000000	0.000000	0.000000
B 	0.000000	2.100000	0.000000
Cl 	-1.079324	3.269231	0.963099
N 	1.079324	2.656776	-0.963099
C 	1.842771	1.829734	-1.644337
H 	1.718591	0.772757	-1.533529
H 	2.587852	2.214090	-2.309186
O 	2.080000	0.000000	0.000000
H 	2.715106	0.698719	0.329289
H 	2.665511	-0.698719	-0.329289
O 	-0.000000	-2.080000	0.000000
H 	0.686802	-2.715106	0.353473
H 	-0.686802	-2.665511	-0.353473
O 	-2.080000	0.000000	0.000000
H 	-2.715106	-0.674047	0.377227
H 	-2.665511	0.674047	-0.377227
O 	0.000000	0.000000	2.080000
H 	0.400521	-0.660471	2.715106
H 	-0.400521	0.660471	2.665511
O 	0.000000	-0.000000	-2.080000
H 	-0.646091	0.423327	-2.715106
H 	0.646091	-0.423327	-2.665511
