27
06/06/2024 02:02, XYZ structure generated by mol3D Class, molSimplify
Fe 	0.000000	0.000000	0.000000
B 	0.000000	2.100000	0.000000
O 	1.024708	2.812827	-0.831775
C 	1.963473	2.068210	-1.593788
O 	1.935467	0.797822	-1.571055
C 	3.001845	2.790541	-2.436654
N 	-1.024708	2.912787	0.831775
O 	-1.960609	2.261738	1.591463
O 	-0.997688	4.138443	0.809842
H 	2.508794	3.403846	-3.161677
H 	3.609990	3.403844	-1.805053
H 	3.617709	2.072417	-2.936562
O 	2.080000	0.000000	0.000000
H 	2.715106	-0.770000	-0.061155
H 	2.665511	0.770000	0.061155
O 	-0.000000	-2.080000	0.000000
H 	-0.767397	-2.715106	-0.087990
H 	0.767397	-2.665511	0.087990
O 	-2.080000	0.000000	0.000000
H 	-2.715106	0.763858	-0.114718
H 	-2.665511	-0.763858	0.114718
O 	0.000000	0.000000	2.080000
H 	-0.141307	0.759389	2.715106
H 	0.141307	-0.759389	2.665511
O 	0.000000	0.000000	-2.080000
H 	0.654489	-0.410224	-2.715106
H 	-0.654489	0.410224	-2.665511
