29
06/06/2024 01:05, XYZ structure generated by mol3D Class, molSimplify
Fe 	0.000000	0.000000	0.000000
B 	0.000000	2.100000	0.000000
N 	1.305106	2.912787	0.196404
N 	1.184011	3.730972	1.350661
O 	-1.305106	2.812827	-0.196404
C 	-2.500752	2.068210	-0.376335
O 	-2.465082	0.797822	-0.370967
C 	-3.823260	2.790541	-0.575357
H 	2.090047	2.272229	0.314528
H 	2.042856	4.265837	1.479908
H 	0.399069	4.371528	1.232531
H 	-4.026565	3.403846	0.277535
H 	-3.766543	3.403844	-1.450311
H 	-4.607647	2.072417	-0.693399
O 	2.080000	0.000000	0.000000
H 	2.715106	-0.294912	-0.713910
H 	2.665511	0.294912	0.713910
O 	0.000000	-2.080000	0.000000
H 	-0.269817	-2.715106	-0.723767
H 	0.269817	-2.665511	0.723767
O 	-2.080000	0.000000	0.000000
H 	-2.715106	-0.047892	-0.770938
H 	-2.665511	0.047892	0.770938
O 	0.000000	0.000000	2.080000
H 	-0.768797	-0.074768	2.715106
H 	0.768797	0.074768	2.665511
O 	0.000000	0.000000	-2.080000
H 	0.769996	-0.061205	-2.715106
H 	-0.769996	0.061205	-2.665511
