36
06/06/2024 02:12, XYZ structure generated by mol3D Class, molSimplify
Fe 	0.000000	0.000000	0.000000
B 	0.000000	2.100000	-0.000000
N 	1.065610	2.637386	0.989036
C 	1.247413	4.086308	1.157774
O 	2.121145	4.526930	1.968720
N 	0.418605	5.025580	0.388524
S 	-1.065610	3.307636	-0.989036
C 	-2.204968	2.380441	-2.046520
C 	-3.304886	1.789503	-1.446904
C 	-3.859279	0.721861	-2.191780
C 	-3.632320	0.506571	-3.474806
C 	-2.572462	1.172485	-4.024996
C 	-1.898082	2.136483	-3.315198
H 	1.640701	1.985646	1.522801
H 	-0.282635	4.671945	-0.262325
H 	0.544754	6.030954	0.505608
H 	-3.699521	2.111189	-0.505797
H 	-4.507490	0.041621	-1.679924
H 	-4.244901	-0.153489	-4.052703
H 	-2.263769	0.939553	-5.022669
H 	-1.118554	2.695682	-3.789047
O 	2.080000	0.000000	0.000000
H 	2.715106	-0.377327	-0.673991
H 	2.665511	0.377327	0.673991
O 	-0.000000	-2.080000	0.000000
H 	-0.353575	-2.715106	-0.686749
H 	0.353575	-2.665511	0.686749
O 	-2.080000	0.000000	0.000000
H 	-2.715106	-0.347765	-0.689709
H 	-2.665511	0.347765	0.689709
O 	0.000000	0.000000	2.080000
H 	-0.677152	-0.371624	2.715106
H 	0.677152	0.371624	2.665511
O 	0.000000	0.000000	-2.080000
H 	0.598404	-0.488418	-2.715106
H 	-0.598404	0.488418	-2.665511
