25
06/06/2024 01:34, XYZ structure generated by mol3D Class, molSimplify
Fe 	0.000000	0.000000	0.000000
B 	0.000000	2.100000	0.000000
C 	-1.342357	2.937779	-0.237076
C 	-1.305540	4.297665	-0.230573
N 	1.342357	2.837816	0.237076
C 	2.446152	2.148927	0.432018
O 	3.512403	1.483469	0.620331
H 	-2.269016	2.428447	-0.400734
H 	-2.203241	4.857929	-0.389118
H 	-0.378880	4.806996	-0.066915
O 	2.080000	0.000000	0.000000
H 	2.715106	-0.308220	0.708266
H 	2.665511	0.308220	-0.708266
O 	-0.000000	-2.080000	0.000000
H 	-0.332751	-2.715106	0.697077
H 	0.332751	-2.665511	-0.697077
O 	-2.080000	0.000000	0.000000
H 	-2.715106	0.356875	0.685040
H 	-2.665511	-0.356875	-0.685040
O 	0.000000	0.000000	2.080000
H 	0.672168	0.380566	2.715106
H 	-0.672168	-0.380566	2.665511
O 	0.000000	0.000000	-2.080000
H 	-0.474797	0.609268	-2.715106
H 	0.474797	-0.609268	-2.665511
