26
06/06/2024 00:09, XYZ structure generated by mol3D Class, molSimplify
Fe 	0.000000	0.000000	0.000000
B 	0.000000	2.100000	0.000000
S 	-1.481098	3.268533	0.113935
O 	-1.340289	4.150990	1.356400
O 	-1.531978	4.150987	-1.135450
O 	-2.921617	2.353806	0.224749
C 	1.481098	2.694448	-0.113935
F 	2.355990	1.694981	-0.181238
F 	1.575944	3.441249	-1.210381
F 	1.742520	3.441251	0.955103
H 	-3.705267	2.972077	0.285033
O 	2.080000	-0.000000	0.000000
H 	2.715106	-0.019188	-0.772186
H 	2.665511	0.019188	0.772186
O 	-0.000000	-2.080000	0.000000
H 	0.007773	-2.715106	-0.772386
H 	-0.007773	-2.665511	0.772386
O 	-2.080000	0.000000	0.000000
H 	-2.715106	-0.034724	-0.771644
H 	-2.665511	0.034724	0.771644
O 	0.000000	0.000000	2.080000
H 	-0.769962	-0.061633	2.715106
H 	0.769962	0.061633	2.665511
O 	0.000000	0.000000	-2.080000
H 	0.770929	-0.048051	-2.715106
H 	-0.770929	0.048051	-2.665511
