36
06/05/2024 23:01, XYZ structure generated by mol3D Class, molSimplify
Fe 	0.000000	0.000000	0.000000
B 	0.000000	2.100000	0.000000
S 	-0.147603	0.853358	-1.412868
C 	-0.311677	1.738030	-2.983389
C 	0.206804	1.174735	-4.137703
C 	0.281000	2.071317	-5.229805
C 	-0.384740	3.208921	-5.311449
C 	-0.931432	3.678332	-4.149455
C 	-0.926797	2.914591	-3.007276
O 	0.147603	1.618319	1.412868
C 	0.258501	2.554950	2.474388
O 	0.232695	3.801346	2.227373
C 	0.408072	2.066846	3.906095
H 	0.522571	0.154173	-4.198064
H 	0.921020	1.809392	-6.046303
H 	-0.490620	3.734994	-6.237158
H 	-1.369169	4.654487	-4.129280
H 	-1.423355	3.271141	-2.129095
H 	-0.442581	1.474623	4.171725
H 	1.295262	1.474625	3.990170
H 	0.476829	2.907694	4.564235
O 	2.080000	0.000000	0.000000
H 	2.715106	-0.552886	-0.539404
H 	2.665511	0.552886	0.539404
O 	-0.000000	-2.080000	0.000000
H 	-0.533725	-2.715106	-0.558371
H 	0.533725	-2.665511	0.558371
O 	-2.080000	0.000000	0.000000
H 	-2.715106	0.513913	-0.576657
H 	-2.665511	-0.513913	0.576657
O 	0.000000	0.000000	2.080000
H 	-0.594241	0.493474	2.715106
H 	0.594241	-0.493474	2.665511
O 	0.000000	-0.000000	-2.080000
H 	0.611101	0.472435	-2.715106
H 	-0.611101	-0.472435	-2.665511
