27
06/05/2024 23:52, XYZ structure generated by mol3D Class, molSimplify
Fe 	0.000000	0.000000	0.000000
B 	0.000000	2.100000	0.000000
S 	-1.625442	1.155000	0.192392
C 	-2.991645	2.331197	0.354099
S 	1.625442	1.155000	-0.192392
C 	2.991645	2.331197	-0.354099
H 	-2.832664	2.946359	1.215030
H 	-3.038046	2.946356	-0.520159
H 	-3.911868	1.796197	0.463019
H 	2.832664	2.946359	-1.215030
H 	3.038046	2.946356	0.520159
H 	3.911868	1.796197	-0.463019
O 	2.080000	0.000000	0.000000
H 	2.715106	-0.457877	-0.622084
H 	2.665511	0.457877	0.622084
O 	0.000000	-2.080000	0.000000
H 	-0.435888	-2.715106	-0.637685
H 	0.435888	-2.665511	0.637685
O 	-2.080000	0.000000	0.000000
H 	-2.715106	0.413367	-0.652508
H 	-2.665511	-0.413367	0.652508
O 	0.000000	0.000000	2.080000
H 	-0.666537	0.390343	2.715106
H 	0.666537	-0.390343	2.665511
O 	0.000000	-0.000000	-2.080000
H 	0.765276	0.104842	-2.715106
H 	-0.765276	-0.104842	-2.665511
