29
06/06/2024 00:38, XYZ structure generated by mol3D Class, molSimplify
Fe 	0.000000	0.000000	0.000000
B 	0.000000	2.100000	0.000000
N 	0.964901	2.837816	0.962856
C 	0.188639	3.680482	1.883851
C 	1.736917	1.852216	1.733236
C 	-0.964901	2.937779	-0.962856
O 	-1.756058	2.332817	-1.752336
H 	-0.480545	3.067115	2.450308
H 	0.854732	4.189811	2.548535
H 	-0.373302	4.397890	1.323095
H 	1.067734	1.238845	2.299690
H 	2.301951	1.238848	1.062851
H 	2.403010	2.361548	2.397917
H 	-0.944086	4.007375	-0.942085
O 	2.080000	0.000000	0.000000
H 	2.715106	-0.335396	0.695808
H 	2.665511	0.335396	-0.695808
O 	0.000000	-2.080000	0.000000
H 	-0.359476	-2.715106	0.683679
H 	0.359476	-2.665511	-0.683679
O 	-2.080000	0.000000	0.000000
H 	-2.715106	0.383117	0.670717
H 	-2.665511	-0.383117	-0.670717
O 	0.000000	0.000000	2.080000
H 	-0.428970	0.642358	2.715106
H 	0.428970	-0.642358	2.665511
O 	0.000000	0.000000	-2.080000
H 	-0.694743	-0.337598	-2.715106
H 	0.694743	0.337598	-2.665511
