24
06/06/2024 01:20, XYZ structure generated by mol3D Class, molSimplify
Fe 	0.000000	0.000000	0.000000
B 	0.000000	2.100000	0.000000
N 	-0.893051	2.837816	1.029848
N 	-1.602412	2.172358	1.847869
N 	-2.311774	1.506900	2.665890
C 	0.893051	2.937779	-1.029848
O 	1.625295	2.332817	-1.874257
O 	0.867484	4.357242	-1.000365
H 	1.425640	4.880854	-1.644020
O 	2.080000	-0.000000	0.000000
H 	2.715106	-0.296788	-0.713132
H 	2.665511	0.296788	0.713132
O 	-0.000000	-2.080000	0.000000
H 	-0.271719	-2.715106	-0.723055
H 	0.271719	-2.665511	0.723055
O 	-2.080000	0.000000	0.000000
H 	-2.715106	0.246320	-0.732097
H 	-2.665511	-0.246320	0.732097
O 	0.000000	0.000000	2.080000
H 	-0.763748	0.115450	2.715106
H 	0.763748	-0.115450	2.665511
O 	0.000000	0.000000	-2.080000
H 	0.666663	0.390128	-2.715106
H 	-0.666663	-0.390128	-2.665511
