27
06/06/2024 03:06, XYZ structure generated by mol3D Class, molSimplify
Fe 	0.000000	0.000000	0.000000
B 	0.000000	2.100000	0.000000
N 	-1.195324	2.875000	0.610799
C 	-1.810812	3.720125	-0.422563
N 	1.195324	2.875000	-0.610799
O 	2.122588	1.984734	-1.084623
H 	-1.885693	2.212171	0.963571
H 	-2.157873	3.104968	-1.226324
H 	-2.635973	4.255123	-0.000915
H 	-1.086598	4.415444	-0.792625
H 	0.864477	3.461412	-1.376999
H 	2.446944	1.409823	-0.333443
O 	2.080000	0.000000	0.000000
H 	2.715106	-0.342148	-0.692513
H 	2.665511	0.342148	0.692513
O 	-0.000000	-2.080000	0.000000
H 	-0.317771	-2.715106	-0.704032
H 	0.317771	-2.665511	0.704032
O 	-2.080000	0.000000	0.000000
H 	-2.715106	0.293007	-0.714693
H 	-2.665511	-0.293007	0.714693
O 	0.000000	0.000000	2.080000
H 	-0.724484	0.267886	2.715106
H 	0.724484	-0.267886	2.665511
O 	0.000000	-0.000000	-2.080000
H 	0.733392	0.242439	-2.715106
H 	-0.733392	-0.242439	-2.665511
