36
06/05/2024 23:50, XYZ structure generated by mol3D Class, molSimplify
Fe 	0.000000	0.000000	0.000000
B 	0.000000	2.100000	0.000000
N 	1.334198	2.837816	-0.279362
C 	1.679102	3.680482	0.874699
C 	-1.334198	2.937779	0.279362
C 	-2.491141	1.982164	0.521609
C 	-1.135126	3.813531	1.505668
C 	-1.643813	3.813532	-0.923799
H 	2.074905	2.153931	-0.434455
H 	1.786144	3.067115	1.744885
H 	2.600130	4.189811	0.681850
H 	0.902083	4.397890	1.037391
H 	-2.273189	1.365680	1.368571
H 	-3.383385	2.542430	0.708430
H 	-2.631276	1.365681	-0.341647
H 	-0.320700	4.486236	1.335144
H 	-2.027370	4.373798	1.692490
H 	-0.917174	3.197043	2.352627
H 	-0.829386	4.486234	-1.094328
H 	-1.783949	3.197048	-1.787054
H 	-2.536057	4.373796	-0.736975
O 	2.080000	0.000000	0.000000
H 	2.715106	-0.386175	-0.668961
H 	2.665511	0.386175	0.668961
O 	-0.000000	-2.080000	0.000000
H 	-0.362594	-2.715106	-0.682031
H 	0.362594	-2.665511	0.682031
O 	-2.080000	0.000000	0.000000
H 	-2.715106	0.080783	0.768189
H 	-2.665511	-0.080783	-0.768189
O 	0.000000	0.000000	2.080000
H 	0.764902	0.107543	2.715106
H 	-0.764902	-0.107543	2.665511
O 	0.000000	0.000000	-2.080000
H 	-0.769702	0.064803	-2.715106
H 	0.769702	-0.064803	-2.665511
