27
06/06/2024 02:00, XYZ structure generated by mol3D Class, molSimplify
Fe 	0.000000	0.000000	0.000000
B 	0.000000	2.100000	0.000000
N 	-1.294109	2.912787	0.259150
O 	1.294109	2.812827	-0.259150
C 	2.479680	2.068210	-0.496565
O 	2.444310	0.797822	-0.489482
C 	3.791044	2.790541	-0.759170
H 	-1.494279	3.500498	-0.550126
H 	-2.072436	2.272229	0.415013
H 	3.692175	3.403846	-1.630366
H 	4.035266	3.403844	0.082920
H 	4.568822	2.072417	-0.914923
O 	2.080000	0.000000	0.000000
H 	2.715106	0.208553	0.743738
H 	2.665511	-0.208553	-0.743738
O 	0.000000	-2.080000	0.000000
H 	0.182470	-2.715106	0.750563
H 	-0.182470	-2.665511	-0.750563
O 	-2.080000	0.000000	0.000000
H 	-2.715106	-0.156164	0.756474
H 	-2.665511	0.156164	-0.756474
O 	0.000000	0.000000	2.080000
H 	0.761463	-0.129669	2.715106
H 	-0.761463	0.129669	2.665511
O 	0.000000	0.000000	-2.080000
H 	-0.755820	-0.159297	-2.715106
H 	0.755820	0.159297	-2.665511
