34
06/05/2024 23:52, XYZ structure generated by mol3D Class, molSimplify
Fe 	0.000000	0.000000	0.000000
B 	0.000000	2.100000	0.000000
N 	-0.078429	2.875000	-1.340046
C 	-0.078429	4.345000	-1.340046
C 	-1.060596	4.937531	-2.116461
C 	-0.901879	6.334722	-2.273676
C 	-0.145999	7.094184	-1.501743
C 	0.757928	6.444787	-0.707609
C 	0.750481	5.074804	-0.602799
N 	0.078429	2.875000	1.340046
C 	0.145001	2.217175	2.477486
H 	-0.130041	2.365000	-2.221883
H 	-1.866247	4.388491	-2.557349
H 	-1.431097	6.808943	-3.073641
H 	-0.236108	8.160376	-1.497974
H 	1.481533	7.011608	-0.159877
H 	1.418678	4.591633	0.079080
H 	0.145001	1.147175	2.477486
H 	0.199143	2.752175	3.402550
O 	2.080000	0.000000	0.000000
H 	2.715106	-0.079204	-0.768353
H 	2.665511	0.079204	0.768353
O 	0.000000	-2.080000	0.000000
H 	-0.052341	-2.715106	-0.770649
H 	0.052341	-2.665511	0.770649
O 	-2.080000	0.000000	0.000000
H 	-2.715106	0.025413	-0.772006
H 	-2.665511	-0.025413	0.772006
O 	0.000000	0.000000	2.080000
H 	-0.772423	-0.001545	2.715106
H 	0.772423	0.001545	2.665511
O 	0.000000	0.000000	-2.080000
H 	0.771312	0.041450	-2.715106
H 	-0.771312	-0.041450	-2.665511
