25
06/06/2024 01:56, XYZ structure generated by mol3D Class, molSimplify
Fe 	0.000000	0.000000	0.000000
B 	0.000000	2.100000	0.000000
N 	-1.439119	2.637386	0.206529
N 	-2.406831	1.825331	0.345406
N 	-3.374543	1.013276	0.484282
S 	1.439119	3.307636	-0.206529
O 	2.740189	2.523652	-0.393246
O 	1.193745	4.188577	-1.433725
O 	1.561626	4.291927	1.186404
H 	2.323065	4.930888	1.077130
O 	2.080000	-0.000000	-0.000000
H 	2.715106	0.317236	0.704274
H 	2.665511	-0.317236	-0.704274
O 	-0.000000	-2.080000	0.000000
H 	0.292464	-2.715106	0.714916
H 	-0.292464	-2.665511	-0.714916
O 	-2.080000	0.000000	0.000000
H 	-2.715106	0.317236	-0.704274
H 	-2.665511	-0.317236	0.704274
O 	0.000000	0.000000	2.080000
H 	-0.714916	0.292464	2.715106
H 	0.714916	-0.292464	2.665511
O 	0.000000	-0.000000	-2.080000
H 	0.724687	0.267335	-2.715106
H 	-0.724687	-0.267335	-2.665511
