24
06/06/2024 03:00, XYZ structure generated by mol3D Class, molSimplify
Fe 	0.000000	0.000000	0.000000
B 	0.000000	2.100000	0.000000
N 	-1.269789	2.837816	-0.495744
C 	1.269789	2.937779	0.495744
F 	2.233244	2.101616	0.871890
F 	1.710756	3.704062	-0.497865
F 	0.920879	3.704063	1.525292
H 	-1.032234	3.422523	-1.297046
H 	-1.974738	2.153931	-0.770966
O 	2.080000	0.000000	0.000000
H 	2.715106	-0.046711	-0.771011
H 	2.665511	0.046711	0.771011
O 	-0.000000	-2.080000	0.000000
H 	-0.019774	-2.715106	-0.772171
H 	0.019774	-2.665511	0.772171
O 	-2.080000	0.000000	0.000000
H 	-2.715106	-0.007186	-0.772391
H 	-2.665511	0.007186	0.772391
O 	0.000000	0.000000	2.080000
H 	-0.771670	-0.034138	2.715106
H 	0.771670	0.034138	2.665511
O 	0.000000	0.000000	-2.080000
H 	0.771984	-0.026100	-2.715106
H 	-0.771984	0.026100	-2.665511
