25
06/06/2024 00:46, XYZ structure generated by mol3D Class, molSimplify
Fe 	0.000000	0.000000	0.000000
B 	0.000000	2.100000	0.000000
N 	-1.301738	2.637386	0.647452
C 	-2.207892	1.796737	1.098151
O 	-3.083225	0.984682	1.533520
S 	1.301738	3.307636	-0.647452
O 	2.478606	2.523652	-1.232797
O 	0.683865	4.188577	-1.735778
O 	1.854924	4.291927	0.636781
H 	2.543674	4.930888	0.294214
O 	2.080000	-0.000000	-0.000000
H 	2.715106	-0.149415	0.757836
H 	2.665511	0.149415	-0.757836
O 	0.000000	-2.080000	0.000000
H 	-0.175772	-2.715106	0.752159
H 	0.175772	-2.665511	-0.752159
O 	-2.080000	0.000000	0.000000
H 	-2.715106	0.631545	-0.444737
H 	-2.665511	-0.631545	0.444737
O 	0.000000	0.000000	2.080000
H 	-0.466507	0.615639	2.715106
H 	0.466507	-0.615639	2.665511
O 	0.000000	-0.000000	-2.080000
H 	-0.119729	0.763089	-2.715106
H 	0.119729	-0.763089	-2.665511
