24
06/05/2024 22:55, XYZ structure generated by mol3D Class, molSimplify
Fe 	0.000000	0.000000	0.000000
B 	0.000000	2.100000	0.000000
N 	-0.596676	2.837816	1.225604
C 	-1.087312	2.148927	2.233394
C 	0.596676	2.937779	-1.225604
O 	1.085913	2.332817	-2.230519
Cl 	0.575264	4.717106	-1.181620
H 	-1.074441	1.079331	2.206955
H 	-1.499212	2.658258	3.079456
O 	2.080000	0.000000	-0.000000
H 	2.715106	-0.571449	0.519698
H 	2.665511	0.571449	-0.519698
O 	-0.000000	-2.080000	0.000000
H 	-0.589238	-2.715106	0.499438
H 	0.589238	-2.665511	-0.499438
O 	-2.080000	0.000000	0.000000
H 	-2.715106	0.606309	0.478570
H 	-2.665511	-0.606309	-0.478570
O 	0.000000	0.000000	2.080000
H 	0.457118	0.622642	2.715106
H 	-0.457118	-0.622642	2.665511
O 	0.000000	-0.000000	-2.080000
H 	0.692560	0.342053	-2.715106
H 	-0.692560	-0.342053	-2.665511
