27
06/06/2024 03:24, XYZ structure generated by mol3D Class, molSimplify
Fe 	0.000000	0.000000	0.000000
B 	-0.000000	2.100000	0.000000
C 	-1.246401	1.300000	-0.605380
O 	-1.246401	0.029100	-0.605380
N 	-2.391532	2.035000	-1.161573
C 	-2.391532	3.505000	-1.161573
C 	1.246401	1.300000	0.605380
N 	2.228694	0.669517	1.082482
H 	-3.186112	1.525000	-1.547502
H 	-2.463556	3.861669	-2.167803
H 	-3.226942	3.861668	-0.596084
H 	-1.484097	3.861663	-0.720830
O 	2.080000	0.000000	-0.000000
H 	2.715106	0.619311	-0.461621
H 	2.665511	-0.619311	0.461621
O 	-0.000000	-2.080000	0.000000
H 	0.635044	-2.715106	-0.439726
H 	-0.635044	-2.665511	0.439726
O 	-2.080000	0.000000	0.000000
H 	-2.715106	-0.650003	-0.417296
H 	-2.665511	0.650003	0.417296
O 	0.000000	0.000000	2.080000
H 	-0.394357	-0.664171	2.715106
H 	0.394357	0.664171	2.665511
O 	0.000000	-0.000000	-2.080000
H 	0.370937	-0.677529	-2.715106
H 	-0.370937	0.677529	-2.665511
