30
06/06/2024 03:16, XYZ structure generated by mol3D Class, molSimplify
Fe 	0.000000	0.000000	0.000000
B 	0.000000	2.100000	0.000000
O 	-1.075792	2.581681	-0.927715
S 	-1.876654	1.237897	-1.618342
O 	-0.870152	0.390823	-2.400453
O 	-2.502298	0.390827	-0.507793
C 	-3.174777	1.819125	-2.737784
S 	1.075792	3.346642	0.927715
O 	2.086935	2.598614	1.799678
O 	1.821864	4.225399	-0.078983
O 	0.085757	4.328492	1.917614
H 	-3.878463	2.411349	-2.190978
H 	-2.737364	2.411347	-3.514214
H 	-3.675901	0.978278	-3.169931
H 	0.654960	4.988091	2.408468
O 	2.080000	0.000000	0.000000
H 	2.715106	-0.647685	0.420885
H 	2.665511	0.647685	-0.420885
O 	0.000000	-2.080000	0.000000
H 	-0.661979	-2.715106	0.398025
H 	0.661979	-2.665511	-0.398025
O 	-2.080000	0.000000	0.000000
H 	-2.715106	0.675467	0.374679
H 	-2.665511	-0.675467	-0.374679
O 	0.000000	0.000000	2.080000
H 	0.350878	0.688131	2.715106
H 	-0.350878	-0.688131	2.665511
O 	0.000000	-0.000000	-2.080000
H 	0.064468	0.769730	-2.715106
H 	-0.064468	-0.769730	-2.665511
