35
06/05/2024 22:45, XYZ structure generated by mol3D Class, molSimplify
Fe 	0.000000	0.000000	0.000000
B 	0.000000	2.100000	0.000000
N 	-1.290726	2.912787	0.275505
C 	-1.249922	4.382195	0.266796
C 	-1.886520	5.087218	1.274889
C 	-2.028967	6.469086	1.006191
C 	-1.337356	7.130265	0.095953
C 	-0.674970	6.375063	-0.831605
C 	-0.602338	5.008492	-0.708718
O 	1.290726	2.812827	-0.275505
C 	2.320219	1.859803	-0.495251
H 	-2.168420	2.428064	0.462849
H 	-2.238622	4.628472	2.175154
H 	-2.746986	7.016436	1.580435
H 	-1.297503	8.199466	0.084929
H 	-0.206421	6.855178	-1.665183
H 	-0.018658	4.443832	-1.405408
H 	2.430105	1.246498	0.374625
H 	2.065360	1.246500	-1.334183
H 	3.240937	2.368286	-0.691778
O 	2.080000	0.000000	0.000000
H 	2.715106	-0.028755	0.771889
H 	2.665511	0.028755	-0.771889
O 	0.000000	-2.080000	0.000000
H 	-0.055676	-2.715106	0.770415
H 	0.055676	-2.665511	-0.770415
O 	-2.080000	0.000000	0.000000
H 	-2.715106	0.082529	0.768003
H 	-2.665511	-0.082529	-0.768003
O 	0.000000	0.000000	2.080000
H 	0.764655	0.109282	2.715106
H 	-0.764655	-0.109282	2.665511
O 	0.000000	-0.000000	-2.080000
H 	-0.772419	-0.003056	-2.715106
H 	0.772419	0.003056	-2.665511
