25
06/06/2024 02:34, XYZ structure generated by mol3D Class, molSimplify
Fe 	0.000000	0.000000	0.000000
B 	0.000000	2.100000	0.000000
C 	-1.375605	2.900000	0.166463
Cl 	-1.294618	3.923352	1.620626
Cl 	-1.643815	3.923348	-1.265047
Cl 	-2.718744	1.743298	0.328997
C 	1.375605	2.900000	-0.166463
F 	2.379192	2.035728	-0.287908
F 	1.315092	3.664636	-1.253003
F 	1.576002	3.664637	0.903150
O 	2.080000	-0.000000	0.000000
H 	2.715106	0.235921	0.735514
H 	2.665511	-0.235921	-0.735514
O 	-0.000000	-2.080000	0.000000
H 	0.210108	-2.715106	0.743300
H 	-0.210108	-2.665511	-0.743300
O 	-2.080000	0.000000	0.000000
H 	-2.715106	-0.184039	0.750180
H 	-2.665511	0.184039	-0.750180
O 	0.000000	0.000000	2.080000
H 	0.756146	-0.157746	2.715106
H 	-0.756146	0.157746	2.665511
O 	0.000000	-0.000000	-2.080000
H 	-0.717272	-0.286637	-2.715106
H 	0.717272	0.286637	-2.665511
