27
06/06/2024 03:26, XYZ structure generated by mol3D Class, molSimplify
Fe 	0.000000	0.000000	0.000000
B 	0.000000	2.100000	0.000000
N 	-1.449842	2.637386	-0.108049
N 	-2.424765	1.825331	-0.180704
N 	-3.399688	1.013276	-0.253360
S 	1.449842	3.307636	0.108049
O 	2.760607	2.523652	0.205733
O 	1.474345	4.188577	-1.143198
C 	1.259146	4.349488	1.575795
F 	0.120058	5.030790	1.490905
F 	1.237853	3.583927	2.663160
F 	2.279405	5.199306	1.651829
O 	2.080000	-0.000000	-0.000000
H 	2.715106	0.378666	0.673240
H 	2.665511	-0.378666	-0.673240
O 	-0.000000	-2.080000	0.000000
H 	0.354940	-2.715106	0.686045
H 	-0.354940	-2.665511	-0.686045
O 	-2.080000	0.000000	0.000000
H 	-2.715106	0.169082	0.753692
H 	-2.665511	-0.169082	-0.753692
O 	0.000000	0.000000	2.080000
H 	0.747332	0.195282	2.715106
H 	-0.747332	-0.195282	2.665511
O 	0.000000	-0.000000	-2.080000
H 	-0.740061	0.221245	-2.715106
H 	0.740061	-0.221245	-2.665511
