33
06/05/2024 23:04, XYZ structure generated by mol3D Class, molSimplify
Fe 	0.000000	0.000000	0.000000
B 	0.000000	2.100000	0.000000
O 	-1.338285	2.776364	0.039043
S 	-2.573478	1.594374	0.075078
O 	-2.479940	0.720386	-1.177787
O 	-2.407060	0.720389	1.320362
C 	-4.188342	2.410521	0.122190
C 	1.338285	2.976053	-0.039043
O 	2.472169	2.402992	-0.072123
N 	1.256315	4.443764	-0.036652
C 	-0.055204	5.106601	0.001611
H 	-4.253737	3.021562	0.998119
H 	-4.304691	3.021560	-0.748439
H 	-4.961240	1.670913	0.144738
H 	2.109472	5.002248	-0.061541
H 	-0.120600	5.717642	0.877540
H 	-0.171553	5.717640	-0.869018
H 	-0.828103	4.366993	0.024159
O 	2.080000	0.000000	0.000000
H 	2.715106	0.437670	0.636463
H 	2.665511	-0.437670	-0.636463
O 	-0.000000	-2.080000	0.000000
H 	0.415191	-2.715106	0.651350
H 	-0.415191	-2.665511	-0.651350
O 	-2.080000	0.000000	0.000000
H 	-2.715106	0.665443	0.392206
H 	-2.665511	-0.665443	-0.392206
O 	0.000000	0.000000	2.080000
H 	0.368744	0.678725	2.715106
H 	-0.368744	-0.678725	2.665511
O 	0.000000	0.000000	-2.080000
H 	0.622983	-0.456654	-2.715106
H 	-0.622983	0.456654	-2.665511
