25
06/05/2024 23:23, XYZ structure generated by mol3D Class, molSimplify
Fe 	0.000000	0.000000	0.000000
B 	0.000000	2.100000	0.000000
S 	-0.746161	3.045000	-1.456818
S 	0.746161	3.045000	1.456818
O 	1.276457	2.050470	2.492180
O 	1.895329	3.924878	0.959321
N 	-0.490369	4.056850	2.194892
H 	-1.217394	2.161227	-2.376864
H 	-1.256257	3.470438	2.526459
H 	-0.087679	4.566850	2.981111
O 	2.080000	0.000000	0.000000
H 	2.715106	0.521285	-0.570001
H 	2.665511	-0.521285	0.570001
O 	-0.000000	-2.080000	0.000000
H 	0.540861	-2.715106	-0.551461
H 	-0.540861	-2.665511	0.551461
O 	-2.080000	0.000000	0.000000
H 	-2.715106	-0.559777	-0.532250
H 	-2.665511	0.559777	0.532250
O 	0.000000	0.000000	2.080000
H 	0.319632	-0.703189	2.715106
H 	-0.319632	0.703189	2.665511
O 	0.000000	0.000000	-2.080000
H 	-0.284649	-0.718063	-2.715106
H 	0.284649	0.718063	-2.665511
