25
06/06/2024 02:06, XYZ structure generated by mol3D Class, molSimplify
Fe 	0.000000	0.000000	0.000000
B 	0.000000	2.100000	0.000000
N 	-0.028134	2.637386	-1.453590
S 	0.028134	3.307636	1.453590
O 	0.053569	2.523652	2.767744
O 	1.276181	4.188577	1.360866
O 	-1.369297	4.291927	1.404015
H 	0.801591	3.206273	-1.621886
H 	-0.040757	1.853243	-2.105787
H 	-1.354411	4.930888	2.173110
O 	2.080000	0.000000	0.000000
H 	2.715106	-0.657948	-0.404654
H 	2.665511	0.657948	0.404654
O 	-0.000000	-2.080000	0.000000
H 	-0.643425	-2.715106	-0.427369
H 	0.643425	-2.665511	0.427369
O 	-2.080000	0.000000	0.000000
H 	-2.715106	0.628118	-0.449564
H 	-2.665511	-0.628118	0.449564
O 	0.000000	0.000000	2.080000
H 	-0.570333	0.520922	2.715106
H 	0.570333	-0.520922	2.665511
O 	0.000000	-0.000000	-2.080000
H 	0.723945	0.269340	-2.715106
H 	-0.723945	-0.269340	-2.665511
