30
06/06/2024 00:18, XYZ structure generated by mol3D Class, molSimplify
Fe 	0.000000	0.000000	0.000000
B 	0.000000	2.100000	-0.000000
N 	-0.993945	2.875000	0.902191
C 	-1.858298	3.720125	0.065795
C 	-1.821268	1.919746	1.653141
N 	0.993945	2.875000	-0.902191
O 	1.764990	1.984734	-1.602059
H 	-2.403512	3.104968	-0.619204
H 	-2.544442	4.255123	0.688598
H 	-1.256093	4.415444	-0.480813
H 	-2.366480	1.304585	0.968145
H 	-1.192113	1.304587	2.261946
H 	-2.507410	2.454746	2.275944
H 	0.474205	3.461412	-1.555178
H 	2.274538	1.409823	-0.961872
O 	2.080000	0.000000	0.000000
H 	2.715106	0.591690	0.496531
H 	2.665511	-0.591690	-0.496531
O 	0.000000	-2.080000	0.000000
H 	0.574001	-2.715106	0.516878
H 	-0.574001	-2.665511	-0.516878
O 	-2.080000	0.000000	0.000000
H 	-2.715106	-0.555612	0.536596
H 	-2.665511	0.555612	-0.536596
O 	0.000000	0.000000	2.080000
H 	0.681994	0.362661	2.715106
H 	-0.681994	-0.362661	2.665511
O 	0.000000	0.000000	-2.080000
H 	-0.636840	-0.437120	-2.715106
H 	0.636840	0.437120	-2.665511
