21
06/06/2024 00:14, XYZ structure generated by mol3D Class, molSimplify
Fe 	0.000000	0.000000	0.000000
B 	0.000000	2.100000	-0.000000
F 	0.728857	2.738672	-1.024190
O 	-0.728857	2.918414	1.024190
C 	-1.382376	2.054707	1.942516
N 	-1.962704	1.287731	2.757994
O 	2.080000	0.000000	0.000000
H 	2.715106	0.503715	0.585586
H 	2.665511	-0.503715	-0.585586
O 	-0.000000	-2.080000	0.000000
H 	0.482972	-2.715106	0.602808
H 	-0.482972	-2.665511	-0.602808
O 	-2.080000	0.000000	0.000000
H 	-2.715106	-0.461640	0.619297
H 	-2.665511	0.461640	-0.619297
O 	0.000000	0.000000	2.080000
H 	0.686401	0.354251	2.715106
H 	-0.686401	-0.354251	2.665511
O 	0.000000	0.000000	-2.080000
H 	-0.561389	-0.530549	-2.715106
H 	0.561389	0.530549	-2.665511
