30
06/06/2024 00:47, XYZ structure generated by mol3D Class, molSimplify
Fe 	0.000000	0.000000	0.000000
B 	0.000000	2.100000	0.000000
S 	-1.468261	3.268533	0.225479
O 	-1.234010	4.150990	1.453759
O 	-1.613364	4.150987	-1.016494
O 	-2.896296	2.353806	0.444780
C 	1.468261	2.694448	-0.225479
O 	2.455570	1.908687	-0.377098
N 	1.675245	4.149456	-0.257265
C 	0.533264	5.058314	-0.081893
H 	-3.673154	2.972077	0.564081
H 	2.611262	4.528416	-0.401008
H 	0.697039	5.675276	0.776848
H 	0.431817	5.675274	-0.950207
H 	-0.360301	4.485942	0.055331
O 	2.080000	-0.000000	0.000000
H 	2.715106	0.277873	0.720712
H 	2.665511	-0.277873	-0.720712
O 	-0.000000	-2.080000	0.000000
H 	0.252552	-2.715106	0.729971
H 	-0.252552	-2.665511	-0.729971
O 	-2.080000	0.000000	0.000000
H 	-2.715106	-0.226922	0.738340
H 	-2.665511	0.226922	-0.738340
O 	0.000000	0.000000	2.080000
H 	0.745810	-0.201016	2.715106
H 	-0.745810	0.201016	2.665511
O 	0.000000	-0.000000	-2.080000
H 	-0.699580	-0.327456	-2.715106
H 	0.699580	0.327456	-2.665511
