26
06/06/2024 02:03, XYZ structure generated by mol3D Class, molSimplify
Fe 	0.000000	0.000000	0.000000
B 	0.000000	2.100000	0.000000
N 	-0.995823	2.875000	-0.900117
C 	-0.248755	3.720125	-1.842748
N 	0.995823	2.875000	0.900117
O 	1.876002	2.190000	1.695705
O 	0.995823	4.101150	0.900117
H 	-1.570969	2.212171	-1.419987
H 	0.379131	3.104968	-2.452864
H 	-0.936194	4.255123	-2.464121
H 	0.354582	4.415444	-1.297390
O 	2.080000	-0.000000	-0.000000
H 	2.715106	-0.530809	0.561143
H 	2.665511	0.530809	-0.561143
O 	-0.000000	-2.080000	0.000000
H 	-0.550069	-2.715106	0.542277
H 	0.550069	-2.665511	-0.542277
O 	-2.080000	0.000000	0.000000
H 	-2.715106	0.568659	0.522749
H 	-2.665511	-0.568659	-0.522749
O 	0.000000	0.000000	2.080000
H 	0.502585	0.586556	2.715106
H 	-0.502585	-0.586556	2.665511
O 	0.000000	-0.000000	-2.080000
H 	-0.481808	0.603739	-2.715106
H 	0.481808	-0.603739	-2.665511
