38
06/06/2024 00:25, XYZ structure generated by mol3D Class, molSimplify
Fe 	0.000000	0.000000	0.000000
B 	0.000000	2.100000	0.000000
N 	-1.095269	2.875000	0.776055
C 	-1.095269	4.345000	0.776055
C 	-1.308280	5.023895	1.964454
C 	-1.587326	6.400782	1.796039
C 	-1.327850	7.088849	0.699111
C 	-1.058053	6.360447	-0.426096
C 	-0.900741	4.996874	-0.364322
N 	1.095269	2.875000	-0.776055
C 	2.134008	2.140000	-1.512055
O 	3.032058	2.775450	-2.148370
C 	2.134008	0.620000	-1.512055
H 	-1.816027	2.365000	1.286749
H 	-1.265675	4.550097	2.922891
H 	-2.040068	6.920671	2.614355
H 	-1.328704	8.158820	0.691325
H 	-0.968128	6.859472	-1.368321
H 	-0.618929	4.455370	-1.243102
H 	1.095269	3.895000	-0.776055
H 	2.227533	0.263331	-0.507595
H 	1.217357	0.263332	-1.933289
H 	2.957134	0.263337	-2.095283
O 	2.080000	0.000000	0.000000
H 	2.715106	0.586851	0.502241
H 	2.665511	-0.586851	-0.502241
O 	0.000000	-2.080000	0.000000
H 	0.568965	-2.715106	0.522416
H 	-0.568965	-2.665511	-0.522416
O 	-2.080000	0.000000	0.000000
H 	-2.715106	-0.550387	0.541954
H 	-2.665511	0.550387	-0.541954
O 	0.000000	0.000000	2.080000
H 	0.560832	-0.531138	2.715106
H 	-0.560832	0.531138	2.665511
O 	0.000000	-0.000000	-2.080000
H 	-0.568965	0.522416	-2.715106
H 	0.568965	-0.522416	-2.665511
