31
06/06/2024 01:40, XYZ structure generated by mol3D Class, molSimplify
Fe 	0.000000	0.000000	0.000000
B 	0.000000	2.100000	0.000000
O 	-0.911211	2.850000	0.925848
C 	-1.773825	2.140000	1.802317
O 	-1.773825	0.869100	1.802317
C 	-2.697185	2.900000	2.740509
F 	-1.972639	3.664640	3.552457
F 	-3.520575	3.664637	2.028991
F 	-3.406284	2.035722	3.460998
O 	0.911211	2.850000	-0.925848
C 	1.773825	2.140000	-1.802317
O 	1.773825	0.869100	-1.802317
C 	2.697185	2.900000	-2.740509
F 	1.972639	3.664640	-3.552457
F 	3.520575	3.664637	-2.028991
F 	3.406284	2.035722	-3.460998
O 	2.080000	0.000000	0.000000
H 	2.715106	-0.771635	-0.034924
H 	2.665511	0.771635	0.034924
O 	-0.000000	-2.080000	0.000000
H 	-0.769946	-2.715106	-0.061833
H 	0.769946	-2.665511	0.061833
O 	-2.080000	0.000000	0.000000
H 	-2.715106	0.767319	-0.088666
H 	-2.665511	-0.767319	0.088666
O 	0.000000	0.000000	2.080000
H 	-0.603738	-0.481810	2.715106
H 	0.603738	0.481810	2.665511
O 	0.000000	0.000000	-2.080000
H 	-0.586555	0.502587	-2.715106
H 	0.586555	-0.502587	-2.665511
