25
06/05/2024 22:53, XYZ structure generated by mol3D Class, molSimplify
Fe 	0.000000	0.000000	0.000000
B 	0.000000	2.100000	0.000000
O 	-0.776917	1.387173	-1.066901
C 	-1.396592	2.340197	-1.917869
N 	0.776917	1.287213	1.066901
C 	1.458350	1.912434	2.002680
O 	2.116606	2.516389	2.906629
H 	-2.059201	2.953502	-1.343668
H 	-0.646718	2.953500	-2.372238
H 	-1.950792	1.831714	-2.678925
O 	2.080000	0.000000	0.000000
H 	2.715106	0.534058	0.558052
H 	2.665511	-0.534058	-0.558052
O 	0.000000	-2.080000	0.000000
H 	0.514257	-2.715106	0.576350
H 	-0.514257	-2.665511	-0.576350
O 	-2.080000	0.000000	0.000000
H 	-2.715106	-0.493829	0.593947
H 	-2.665511	0.493829	-0.593947
O 	0.000000	0.000000	2.080000
H 	0.610819	-0.472800	2.715106
H 	-0.610819	0.472800	2.665511
O 	0.000000	-0.000000	-2.080000
H 	-0.626948	-0.451195	-2.715106
H 	0.626948	0.451195	-2.665511
