34
06/06/2024 02:04, XYZ structure generated by mol3D Class, molSimplify
Fe 	0.000000	0.000000	0.000000
B 	0.000000	2.100000	0.000000
N 	-1.304674	2.837816	-0.394908
C 	-1.343341	4.307261	-0.406612
C 	-2.350786	5.009973	0.233556
C 	-2.333435	6.400878	-0.025546
C 	-1.296197	7.059703	-0.509388
C 	-0.302587	6.304368	-1.067651
C 	-0.316916	4.933939	-0.969610
C 	1.304674	2.937779	0.394908
Cl 	2.629534	1.818704	0.795927
Cl 	1.789022	3.963331	-0.976969
Cl 	0.946913	3.963332	1.805103
H 	-2.136404	2.303733	-0.646663
H 	-3.076327	4.543326	0.866588
H 	-3.222549	6.957622	0.185196
H 	-1.236578	8.127192	-0.466818
H 	0.497663	6.787426	-1.588377
H 	0.506488	4.366557	-1.350379
O 	2.080000	0.000000	0.000000
H 	2.715106	-0.255286	0.729019
H 	2.665511	0.255286	-0.729019
O 	0.000000	-2.080000	0.000000
H 	-0.280573	-2.715106	0.719666
H 	0.280573	-2.665511	-0.719666
O 	-2.080000	0.000000	0.000000
H 	-2.715106	0.305518	0.709436
H 	-2.665511	-0.305518	-0.709436
O 	0.000000	0.000000	2.080000
H 	0.698341	0.330090	2.715106
H 	-0.698341	-0.330090	2.665511
O 	0.000000	0.000000	-2.080000
H 	-0.745047	0.203826	-2.715106
H 	0.745047	-0.203826	-2.665511
