27
06/06/2024 01:45, XYZ structure generated by mol3D Class, molSimplify
Fe 	0.000000	0.000000	0.000000
B 	0.000000	2.100000	0.000000
C 	1.452462	2.694448	-0.311426
C 	1.641952	4.040973	-0.352055
S 	-1.452462	3.268533	0.311426
O 	-2.716805	2.449860	0.582517
O 	-1.146390	4.150986	1.523809
O 	-1.695897	4.254514	-1.064321
H 	2.274755	2.032898	-0.487736
H 	2.613286	4.438510	-0.560321
H 	0.819659	4.702523	-0.175745
H 	-2.464396	4.872785	-0.899545
O 	2.080000	0.000000	0.000000
H 	2.715106	0.357462	0.684734
H 	2.665511	-0.357462	-0.684734
O 	0.000000	-2.080000	0.000000
H 	0.333348	-2.715106	0.696792
H 	-0.333348	-2.665511	-0.696792
O 	-2.080000	0.000000	0.000000
H 	-2.715106	-0.308827	0.708001
H 	-2.665511	0.308827	-0.708001
O 	0.000000	0.000000	2.080000
H 	0.718348	-0.283930	2.715106
H 	-0.718348	0.283930	2.665511
O 	0.000000	-0.000000	-2.080000
H 	-0.727819	-0.258687	-2.715106
H 	0.727819	0.258687	-2.665511
