26
06/06/2024 02:20, XYZ structure generated by mol3D Class, molSimplify
Fe 	0.000000	0.000000	0.000000
B 	0.000000	2.100000	0.000000
O 	1.128488	2.776364	0.720448
C 	1.993407	1.794829	1.272628
C 	-1.128488	2.976053	-0.720448
H 	1.446662	1.183788	1.960087
H 	2.386899	1.183790	0.487329
H 	2.798395	2.277302	1.786548
H 	-1.845615	2.327189	-1.178275
H 	-1.617384	3.593416	0.003944
H 	-0.677141	3.593416	-1.468812
O 	2.080000	-0.000000	0.000000
H 	2.715106	-0.078109	0.768465
H 	2.665511	0.078109	-0.768465
O 	-0.000000	-2.080000	0.000000
H 	-0.104880	-2.715106	0.765271
H 	0.104880	-2.665511	-0.765271
O 	-2.080000	0.000000	0.000000
H 	-2.715106	0.131524	0.761145
H 	-2.665511	-0.131524	-0.761145
O 	0.000000	0.000000	2.080000
H 	-0.210365	0.743227	2.715106
H 	0.210365	-0.743227	2.665511
O 	0.000000	-0.000000	-2.080000
H 	0.236175	0.735433	-2.715106
H 	-0.236175	-0.735433	-2.665511
