29
06/06/2024 01:08, XYZ structure generated by mol3D Class, molSimplify
Fe 	0.000000	0.000000	0.000000
B 	0.000000	2.100000	0.000000
N 	-0.553497	2.912787	1.198131
C 	-1.665683	3.759782	0.743660
C 	-1.033257	1.989630	2.236645
O 	0.553497	2.812827	-1.198131
C 	0.994971	1.859803	-2.153769
N 	1.387002	1.013513	-3.002380
H 	-2.442355	3.143264	0.341682
H 	-2.047776	4.320865	1.570757
H 	-1.316465	4.431737	-0.012265
H 	-1.809927	1.373108	1.834669
H 	-0.223707	1.373110	2.567451
H 	-1.415349	2.550716	3.063742
O 	2.080000	0.000000	0.000000
H 	2.715106	-0.542192	0.550152
H 	2.665511	0.542192	-0.550152
O 	-0.000000	-2.080000	0.000000
H 	-0.561062	-2.715106	0.530895
H 	0.561062	-2.665511	-0.530895
O 	-2.080000	0.000000	0.000000
H 	-2.715106	0.771051	0.046045
H 	-2.665511	-0.771051	-0.046045
O 	0.000000	0.000000	2.080000
H 	-0.772385	-0.007853	2.715106
H 	0.772385	0.007853	2.665511
O 	0.000000	0.000000	-2.080000
H 	-0.456499	0.623096	-2.715106
H 	0.456499	-0.623096	-2.665511
