34
06/06/2024 01:23, XYZ structure generated by mol3D Class, molSimplify
Fe 	0.000000	0.000000	0.000000
B 	0.000000	2.100000	-0.000000
C 	0.233574	2.976053	-1.318322
C 	0.220335	4.334335	-1.243596
O 	-0.233574	2.776364	1.318322
C 	-0.440872	1.998867	2.488334
C 	-1.359592	2.364601	3.458259
C 	-1.136990	1.757394	4.716750
C 	-0.389111	0.686194	4.909683
C 	0.448366	0.336971	3.886880
C 	0.380366	0.971339	2.669980
H 	0.400191	2.493580	-2.258726
H 	0.376538	4.920195	-2.125224
H 	0.053718	4.816808	-0.303192
H 	-2.164600	3.044615	3.272668
H 	-1.607318	2.196683	5.571570
H 	-0.436023	0.121920	5.817589
H 	1.167054	-0.441537	4.036263
H 	0.994736	0.634310	1.861364
O 	2.080000	0.000000	0.000000
H 	2.715106	0.322633	0.701817
H 	2.665511	-0.322633	-0.701817
O 	0.000000	-2.080000	0.000000
H 	0.297943	-2.715106	0.712650
H 	-0.297943	-2.665511	-0.712650
O 	-2.080000	0.000000	0.000000
H 	-2.715106	-0.272891	0.722614
H 	-2.665511	0.272891	-0.722614
O 	0.000000	0.000000	2.080000
H 	0.731697	-0.247506	2.715106
H 	-0.731697	0.247506	2.665511
O 	0.000000	-0.000000	-2.080000
H 	0.619402	0.461499	-2.715106
H 	-0.619402	-0.461499	-2.665511
