25
06/06/2024 02:27, XYZ structure generated by mol3D Class, molSimplify
Fe 	0.000000	0.000000	0.000000
B 	0.000000	2.100000	0.000000
C 	0.809791	2.937779	1.096524
O 	0.789042	4.208199	1.068428
O 	1.551664	2.261844	2.101082
N 	-0.809791	2.837816	-1.096524
C 	-1.475667	2.148927	-1.998175
H 	2.057784	2.785455	2.786409
H 	-1.458198	1.079331	-1.974520
H 	-2.034684	2.658258	-2.755131
O 	2.080000	0.000000	0.000000
H 	2.715106	0.532975	0.559086
H 	2.665511	-0.532975	-0.559086
O 	-0.000000	-2.080000	0.000000
H 	0.513139	-2.715106	0.577346
H 	-0.513139	-2.665511	-0.577346
O 	-2.080000	0.000000	0.000000
H 	-2.715106	0.112433	0.764198
H 	-2.665511	-0.112433	-0.764198
O 	0.000000	0.000000	2.080000
H 	0.759809	0.139035	2.715106
H 	-0.759809	-0.139035	2.665511
O 	0.000000	-0.000000	-2.080000
H 	0.172563	0.752902	-2.715106
H 	-0.172563	-0.752902	-2.665511
