27
06/06/2024 03:10, XYZ structure generated by mol3D Class, molSimplify
Fe 	0.000000	0.000000	0.000000
B 	0.000000	2.100000	0.000000
N 	-1.224002	2.912787	-0.493656
C 	-2.297574	2.287566	-0.926641
O 	-3.334630	1.683611	-1.344899
O 	1.224002	2.812827	0.493656
C 	2.345346	2.068210	0.945908
O 	2.311892	0.797822	0.932416
C 	3.585668	2.790541	1.446146
F 	4.077292	3.552873	0.473492
F 	3.264927	3.552870	2.487722
F 	4.500065	1.897920	1.814934
O 	2.080000	0.000000	0.000000
H 	2.715106	-0.379038	0.673031
H 	2.665511	0.379038	-0.673031
O 	0.000000	-2.080000	0.000000
H 	-0.402295	-2.715106	0.659392
H 	0.402295	-2.665511	-0.659392
O 	-2.080000	0.000000	0.000000
H 	-2.715106	0.425063	0.644951
H 	-2.665511	-0.425063	-0.644951
O 	0.000000	0.000000	2.080000
H 	0.629724	0.447312	2.715106
H 	-0.629724	-0.447312	2.665511
O 	0.000000	-0.000000	-2.080000
H 	-0.502816	0.586358	-2.715106
H 	0.502816	-0.586358	-2.665511
