27
06/05/2024 23:26, XYZ structure generated by mol3D Class, molSimplify
Fe 	0.000000	0.000000	0.000000
B 	0.000000	2.100000	-0.000000
N 	-1.286238	2.875000	0.384015
C 	-1.286238	4.345000	0.384015
O 	-2.340870	4.980450	0.698882
N 	-0.066386	5.080000	0.019820
N 	1.286238	2.875000	-0.384015
N 	2.340870	2.239550	-0.698882
N 	3.395502	1.604100	-1.013749
H 	-2.132665	2.365000	0.636721
H 	0.780041	4.570000	-0.232886
H 	-0.066386	6.100000	0.019820
O 	2.080000	0.000000	0.000000
H 	2.715106	-0.484078	-0.601920
H 	2.665511	0.484078	0.601920
O 	-0.000000	-2.080000	0.000000
H 	-0.462777	-2.715106	-0.618448
H 	0.462777	-2.665511	0.618448
O 	-2.080000	0.000000	0.000000
H 	-2.715106	0.440911	-0.634222
H 	-2.665511	-0.440911	0.634222
O 	0.000000	0.000000	2.080000
H 	-0.649223	0.418508	2.715106
H 	0.649223	-0.418508	2.665511
O 	0.000000	-0.000000	-2.080000
H 	0.663433	0.395596	-2.715106
H 	-0.663433	-0.395596	-2.665511
