27
06/06/2024 00:49, XYZ structure generated by mol3D Class, molSimplify
Fe 	0.000000	0.000000	0.000000
B 	0.000000	2.100000	0.000000
N 	-0.884405	2.837816	1.037282
C 	-1.863316	3.680482	0.335463
C 	0.884405	2.937779	-1.037282
H 	-1.375401	2.153931	1.613150
H 	-2.480396	3.067115	-0.287347
H 	-2.473843	4.189811	1.051523
H 	-1.348247	4.397890	-0.268632
H 	1.424268	2.265076	-1.670464
H 	0.245389	3.554263	-1.634363
H 	1.575005	3.554263	-0.500700
O 	2.080000	-0.000000	0.000000
H 	2.715106	0.658483	0.403782
H 	2.665511	-0.658483	-0.403782
O 	-0.000000	-2.080000	0.000000
H 	0.643990	-2.715106	0.426517
H 	-0.643990	-2.665511	-0.426517
O 	-2.080000	0.000000	0.000000
H 	-2.715106	-0.628713	0.448732
H 	-2.665511	0.628713	-0.448732
O 	0.000000	0.000000	2.080000
H 	0.511992	-0.578363	2.715106
H 	-0.511992	0.578363	2.665511
O 	0.000000	-0.000000	-2.080000
H 	-0.531865	-0.560143	-2.715106
H 	0.531865	0.560143	-2.665511
