24
06/05/2024 23:30, XYZ structure generated by mol3D Class, molSimplify
Fe 	0.000000	0.000000	0.000000
B 	0.000000	2.100000	0.000000
N 	0.389995	2.837816	-1.306151
C 	-0.389995	2.937779	1.306151
O 	-0.709766	2.332817	2.377111
O 	-0.378830	4.357242	1.268757
H 	1.208073	3.422523	-1.135075
H 	0.606509	2.153931	-2.031287
H 	-0.622577	4.880854	2.085102
O 	2.080000	0.000000	0.000000
H 	2.715106	-0.431364	0.640753
H 	2.665511	0.431364	-0.640753
O 	-0.000000	-2.080000	0.000000
H 	-0.453464	-2.715106	0.625308
H 	0.453464	-2.665511	-0.625308
O 	-2.080000	0.000000	0.000000
H 	-2.715106	0.475010	0.609102
H 	-2.665511	-0.475010	-0.609102
O 	0.000000	0.000000	2.080000
H 	0.592153	0.495978	2.715106
H 	-0.592153	-0.495978	2.665511
O 	0.000000	-0.000000	-2.080000
H 	-0.574483	0.516342	-2.715106
H 	0.574483	-0.516342	-2.665511
