36
06/06/2024 01:53, XYZ structure generated by mol3D Class, molSimplify
Fe 	0.000000	0.000000	0.000000
B 	0.000000	2.100000	0.000000
C 	-1.244515	2.694448	0.811057
C 	-0.737966	3.547938	1.962301
C 	-2.093199	3.547935	-0.117218
C 	-2.084671	1.552194	1.358591
S 	1.244515	3.268533	-0.811057
O 	2.327844	2.449860	-1.517068
O 	0.524458	4.150986	-1.833344
N 	1.985669	4.283344	0.421197
H 	-0.146541	4.352026	1.576865
H 	-1.570236	3.945474	2.504695
H 	-0.140537	2.947127	2.615757
H 	-2.449785	2.947127	-0.927635
H 	-2.925470	3.945470	0.425176
H 	-1.501769	4.352020	-0.502651
H 	-2.441255	0.951381	0.548177
H 	-1.487242	0.951384	2.012048
H 	-2.916941	1.949731	1.900986
H 	2.465566	3.695214	1.102521
H 	2.657312	4.913980	-0.016517
O 	2.080000	0.000000	0.000000
H 	2.715106	0.642180	-0.429238
H 	2.665511	-0.642180	0.429238
O 	-0.000000	-2.080000	0.000000
H 	0.656769	-2.715106	-0.406565
H 	-0.656769	-2.665511	0.406565
O 	-2.080000	0.000000	0.000000
H 	-2.715106	-0.553375	0.538903
H 	-2.665511	0.553375	-0.538903
O 	0.000000	0.000000	2.080000
H 	0.622990	0.456643	2.715106
H 	-0.622990	-0.456643	2.665511
O 	0.000000	-0.000000	-2.080000
H 	0.582749	0.506994	-2.715106
H 	-0.582749	-0.506994	-2.665511
