35
06/05/2024 23:41, XYZ structure generated by mol3D Class, molSimplify
Fe 	0.000000	0.000000	0.000000
B 	0.000000	2.100000	0.000000
C 	-1.145018	2.694448	-0.946343
C 	-2.093052	3.547938	-0.119792
C 	-0.511763	3.547935	-2.033057
C 	-1.918005	1.552194	-1.585206
S 	1.145018	3.268533	0.946343
O 	2.141737	2.449860	1.770118
O 	1.906338	4.150986	-0.045597
O 	0.216696	4.254514	1.990450
H 	-1.548910	4.352026	0.329933
H 	-2.858784	3.945474	-0.752660
H 	-2.538830	2.947127	0.645197
H 	0.155604	2.947127	-2.614908
H 	-1.277494	3.945470	-2.665925
H 	0.032378	4.352020	-1.583326
H 	-1.250639	0.951381	-2.167054
H 	-2.363784	0.951384	-0.820217
H 	-2.683736	1.949731	-2.218073
H 	0.822526	4.872785	2.491160
O 	2.080000	-0.000000	0.000000
H 	2.715106	-0.747232	-0.195662
H 	2.665511	0.747232	0.195662
O 	0.000000	-2.080000	0.000000
H 	-0.739949	-2.715106	-0.221621
H 	0.739949	-2.665511	0.221621
O 	-2.080000	0.000000	0.000000
H 	-2.715106	-0.297752	-0.712730
H 	-2.665511	0.297752	0.712730
O 	0.000000	0.000000	2.080000
H 	-0.701904	-0.322445	2.715106
H 	0.701904	0.322445	2.665511
O 	0.000000	-0.000000	-2.080000
H 	-0.233171	-0.736391	-2.715106
H 	0.233171	0.736391	-2.665511
