30
06/06/2024 00:39, XYZ structure generated by mol3D Class, molSimplify
Fe 	0.000000	0.000000	0.000000
B 	0.000000	2.100000	0.000000
N 	0.223125	2.875000	-1.323666
C 	1.419621	3.720125	-1.200948
C 	0.408845	1.919746	-2.425436
N 	-0.223125	2.875000	1.323666
C 	-0.412514	2.217175	2.447201
H 	2.271699	3.104968	-0.999835
H 	1.573651	4.255123	-2.114705
H 	1.284432	4.415444	-0.398978
H 	1.260920	1.304585	-2.224323
H 	-0.462074	1.304587	-2.514761
H 	0.562873	2.454746	-3.339192
H 	-0.412514	1.147175	2.447201
H 	-0.566542	2.752175	3.360958
O 	2.080000	0.000000	0.000000
H 	2.715106	-0.023753	0.772059
H 	2.665511	0.023753	-0.772059
O 	0.000000	-2.080000	0.000000
H 	-0.050683	-2.715106	0.770760
H 	0.050683	-2.665511	-0.770760
O 	-2.080000	0.000000	0.000000
H 	-2.715106	0.077552	0.768522
H 	-2.665511	-0.077552	-0.768522
O 	0.000000	0.000000	2.080000
H 	0.765347	0.104325	2.715106
H 	-0.765347	-0.104325	2.665511
O 	0.000000	0.000000	-2.080000
H 	0.769187	0.070648	-2.715106
H 	-0.769187	-0.070648	-2.665511
