26
06/05/2024 23:10, XYZ structure generated by mol3D Class, molSimplify
Fe 	0.000000	0.000000	0.000000
B 	0.000000	2.100000	0.000000
F 	-1.022605	2.738672	-0.731080
O 	1.022605	2.918414	0.731080
S 	2.126764	1.878316	1.520464
O 	1.372449	0.995357	2.517294
O 	2.825939	0.995361	0.484211
C 	3.360707	2.865869	2.402634
H 	3.888080	3.483182	1.705709
H 	2.871885	3.483179	3.127121
H 	4.051614	2.215048	2.896576
O 	2.080000	0.000000	0.000000
H 	2.715106	0.348871	-0.689151
H 	2.665511	-0.348871	0.689151
O 	-0.000000	-2.080000	0.000000
H 	0.372709	-2.715106	-0.676556
H 	-0.372709	-2.665511	0.676556
O 	-2.080000	0.000000	0.000000
H 	-2.715106	-0.396094	-0.663136
H 	-2.665511	0.396094	0.663136
O 	0.000000	0.000000	2.080000
H 	0.348871	-0.689151	2.715106
H 	-0.348871	0.689151	2.665511
O 	0.000000	-0.000000	-2.080000
H 	-0.743139	0.210676	-2.715106
H 	0.743139	-0.210676	-2.665511
