25
06/06/2024 02:06, XYZ structure generated by mol3D Class, molSimplify
Fe 	0.000000	0.000000	0.000000
B 	0.000000	2.100000	0.000000
S 	-1.148845	3.307636	-0.890994
C 	-2.377199	2.380441	-1.843652
N 	1.148845	2.637386	0.890994
C 	1.948569	1.796737	1.511225
S 	2.933263	0.761653	2.274911
H 	-1.879661	1.764536	-2.563386
H 	-2.950488	1.764538	-1.182665
H 	-3.027604	3.064129	-2.348077
O 	2.080000	-0.000000	0.000000
H 	2.715106	0.473892	-0.609972
H 	2.665511	-0.473892	0.609972
O 	-0.000000	-2.080000	0.000000
H 	0.494891	-2.715106	-0.593062
H 	-0.494891	-2.665511	0.593062
O 	-2.080000	0.000000	0.000000
H 	-2.715106	-0.515287	-0.575429
H 	-2.665511	0.515287	0.575429
O 	0.000000	0.000000	2.080000
H 	-0.557095	-0.535056	2.715106
H 	0.557095	0.535056	2.665511
O 	0.000000	-0.000000	-2.080000
H 	0.029060	-0.771878	-2.715106
H 	-0.029060	0.771878	-2.665511
