23
06/06/2024 02:24, XYZ structure generated by mol3D Class, molSimplify
Fe 	0.000000	0.000000	0.000000
B 	0.000000	2.100000	0.000000
C 	-1.405091	2.714470	-0.456228
C 	-1.572090	4.063492	-0.510452
Cl 	1.405091	3.230121	0.456228
H 	-2.213397	2.064347	-0.718682
H 	-2.511745	4.474419	-0.815554
H 	-0.763784	4.713616	-0.247998
O 	2.080000	0.000000	0.000000
H 	2.715106	0.528008	0.563780
H 	2.665511	-0.528008	-0.563780
O 	-0.000000	-2.080000	0.000000
H 	0.508011	-2.715106	0.581863
H 	-0.508011	-2.665511	-0.581863
O 	-2.080000	0.000000	0.000000
H 	-2.715106	-0.015144	0.772276
H 	-2.665511	0.015144	-0.772276
O 	0.000000	0.000000	2.080000
H 	0.772334	0.011817	2.715106
H 	-0.772334	-0.011817	2.665511
O 	0.000000	0.000000	-2.080000
H 	-0.772179	-0.019480	-2.715106
H 	0.772179	0.019480	-2.665511
