25
06/06/2024 00:18, XYZ structure generated by mol3D Class, molSimplify
Fe 	0.000000	0.000000	0.000000
B 	0.000000	2.100000	0.000000
N 	1.246005	2.837816	0.552809
O 	0.878463	3.623158	1.613494
C 	-1.246005	2.937779	-0.552809
H 	1.937750	2.153931	0.859712
H 	0.200283	4.293632	1.312604
H 	-2.006597	2.265076	-0.890257
H 	-1.636648	3.554263	0.229652
H 	-0.928035	3.554263	-1.367513
O 	2.080000	0.000000	0.000000
H 	2.715106	-0.194181	-0.747619
H 	2.665511	0.194181	0.747619
O 	0.000000	-2.080000	0.000000
H 	-0.167971	-2.715106	-0.753940
H 	0.167971	-2.665511	0.753940
O 	-2.080000	0.000000	0.000000
H 	-2.715106	0.141556	-0.759343
H 	-2.665511	-0.141556	0.759343
O 	0.000000	0.000000	2.080000
H 	-0.763821	0.114969	2.715106
H 	0.763821	-0.114969	2.665511
O 	0.000000	0.000000	-2.080000
H 	0.770943	0.047826	-2.715106
H 	-0.770943	-0.047826	-2.665511
