31
06/05/2024 23:17, XYZ structure generated by mol3D Class, molSimplify
Fe 	0.000000	0.000000	0.000000
B 	0.000000	2.100000	-0.000000
C 	-1.338742	2.976053	-0.017381
C 	-2.428589	2.604442	0.752491
C 	-3.642250	3.218149	0.362052
C 	-3.726329	4.297448	-0.394294
C 	-2.595547	4.651554	-1.076491
C 	-1.401450	4.012380	-0.845230
O 	1.338742	2.776364	0.017381
C 	2.364807	1.794829	0.030702
N 	3.275958	0.923221	0.042531
H 	-2.359013	1.915760	1.568442
H 	-4.555423	2.777090	0.703346
H 	-4.630729	4.864323	-0.469209
H 	-2.641177	5.437736	-1.800878
H 	-0.514036	4.352787	-1.336676
O 	2.080000	-0.000000	-0.000000
H 	2.715106	-0.052051	0.770669
H 	2.665511	0.052051	-0.770669
O 	0.000000	-2.080000	0.000000
H 	-0.078915	-2.715106	0.768383
H 	0.078915	-2.665511	-0.768383
O 	-2.080000	0.000000	0.000000
H 	-2.715106	0.755925	-0.158801
H 	-2.665511	-0.755925	0.158801
O 	0.000000	0.000000	2.080000
H 	-0.185086	0.749922	2.715106
H 	0.185086	-0.749922	2.665511
O 	0.000000	-0.000000	-2.080000
H 	0.211145	0.743006	-2.715106
H 	-0.211145	-0.743006	-2.665511
