26
06/05/2024 22:42, XYZ structure generated by mol3D Class, molSimplify
Fe 	0.000000	0.000000	0.000000
B 	0.000000	2.100000	0.000000
N 	-0.389511	2.656776	-1.393119
C 	-0.451078	4.108885	-1.613322
O 	-0.770452	4.565406	-2.755590
C 	-0.132769	5.064386	-0.474859
Cl 	0.389511	3.269231	1.393119
H 	-0.603113	2.015586	-2.157088
H 	-0.814079	4.896312	0.332895
H 	0.868685	4.896313	-0.137601
H 	-0.228837	6.073153	-0.818455
O 	2.080000	-0.000000	0.000000
H 	2.715106	0.588608	-0.500180
H 	2.665511	-0.588608	0.500180
O 	0.000000	-2.080000	0.000000
H 	0.605706	-2.715106	-0.479334
H 	-0.605706	-2.665511	0.479334
O 	-2.080000	0.000000	0.000000
H 	-2.715106	-0.622065	-0.457903
H 	-2.665511	0.622065	0.457903
O 	0.000000	0.000000	2.080000
H 	-0.435914	-0.637667	2.715106
H 	0.435914	0.637667	2.665511
O 	0.000000	-0.000000	-2.080000
H 	-0.652491	-0.413394	-2.715106
H 	0.652491	0.413394	-2.665511
