25
06/06/2024 02:53, XYZ structure generated by mol3D Class, molSimplify
Fe 	0.000000	0.000000	0.000000
B 	0.000000	2.100000	0.000000
S 	-1.438355	3.307636	0.211782
C 	-2.976254	2.380441	0.438222
N 	1.438355	2.637386	-0.211782
N 	2.405553	1.825331	-0.354192
N 	3.372752	1.013276	-0.496602
H 	-3.150937	1.764536	-0.419127
H 	-2.896410	1.764538	1.309536
H 	-3.790561	3.064129	0.558120
O 	2.080000	0.000000	0.000000
H 	2.715106	-0.359254	-0.683795
H 	2.665511	0.359254	0.683795
O 	-0.000000	-2.080000	0.000000
H 	-0.335172	-2.715106	-0.695917
H 	0.335172	-2.665511	0.695917
O 	-2.080000	0.000000	0.000000
H 	-2.715106	-0.003820	-0.772415
H 	-2.665511	0.003820	0.772415
O 	0.000000	0.000000	2.080000
H 	-0.771811	-0.030774	2.715106
H 	0.771811	0.030774	2.665511
O 	0.000000	0.000000	-2.080000
H 	0.770202	0.058558	-2.715106
H 	-0.770202	-0.058558	-2.665511
