29
06/06/2024 00:06, XYZ structure generated by mol3D Class, molSimplify
Fe 	0.000000	0.000000	0.000000
B 	0.000000	2.100000	0.000000
O 	1.332467	2.776364	-0.130628
S 	2.562289	1.594374	-0.251193
O 	2.554797	0.720386	1.005137
O 	2.310957	0.720389	-1.482151
C 	4.170132	2.410521	-0.408817
C 	-1.332467	2.976053	0.130628
Cl 	-2.741078	1.896635	0.268720
Cl 	-1.227549	4.003067	1.580674
Cl 	-1.511139	4.003068	-1.312188
H 	4.175371	3.021562	-1.287168
H 	4.345849	3.021560	0.451797
H 	4.939671	1.670913	-0.484258
O 	2.080000	-0.000000	0.000000
H 	2.715106	0.577450	-0.513022
H 	2.665511	-0.577450	0.513022
O 	0.000000	-2.080000	0.000000
H 	0.595002	-2.715106	-0.492557
H 	-0.595002	-2.665511	0.492557
O 	-2.080000	0.000000	0.000000
H 	-2.715106	-0.129065	0.761565
H 	-2.665511	0.129065	-0.761565
O 	0.000000	0.000000	2.080000
H 	0.765606	-0.102408	2.715106
H 	-0.765606	0.102408	2.665511
O 	0.000000	-0.000000	-2.080000
H 	-0.075627	0.768713	-2.715106
H 	0.075627	-0.768713	-2.665511
