37
06/06/2024 00:03, XYZ structure generated by mol3D Class, molSimplify
Fe 	0.000000	0.000000	0.000000
B 	0.000000	2.100000	0.000000
O 	-1.333869	2.776364	-0.115429
C 	-2.517678	1.998867	-0.217872
C 	-3.476112	2.341033	-1.157495
C 	-4.718481	1.689596	-0.972558
C 	-4.893676	0.604996	-0.239778
C 	-3.880936	0.281933	0.620127
C 	-2.684916	0.957550	0.588930
C 	1.333869	2.976053	0.115429
O 	2.464012	2.402992	0.213228
N 	1.252170	4.443764	0.108359
C 	-0.055022	5.106601	-0.004761
H 	-3.293560	3.035019	-1.951194
H 	-5.575643	2.104606	-1.460348
H 	-5.780472	0.010992	-0.314957
H 	-4.021810	-0.508394	1.327543
H 	-1.880993	0.641723	1.220484
H 	2.102511	5.002248	0.181945
H 	-0.220916	5.717642	0.857797
H 	-0.070273	5.717640	-0.882998
H 	-0.825370	4.366993	-0.071425
O 	2.080000	-0.000000	0.000000
H 	2.715106	-0.093118	0.766791
H 	2.665511	0.093118	-0.766791
O 	-0.000000	-2.080000	0.000000
H 	-0.119822	-2.715106	0.763074
H 	0.119822	-2.665511	-0.763074
O 	-2.080000	0.000000	0.000000
H 	-2.715106	0.486898	-0.599642
H 	-2.665511	-0.486898	0.599642
O 	0.000000	0.000000	2.080000
H 	-0.730675	-0.250508	2.715106
H 	0.730675	0.250508	2.665511
O 	0.000000	0.000000	-2.080000
H 	-0.655076	0.409287	-2.715106
H 	0.655076	-0.409287	-2.665511
