24
06/06/2024 00:23, XYZ structure generated by mol3D Class, molSimplify
Fe 	0.000000	0.000000	0.000000
B 	0.000000	2.100000	0.000000
N 	-0.610031	2.875000	-1.195716
C 	-1.127829	2.217175	-2.210648
O 	-1.628014	1.581725	-3.191058
N 	0.610031	2.875000	1.195716
C 	1.127829	2.217175	2.210648
H 	1.127829	1.147175	2.210648
H 	1.548946	2.752175	3.036078
O 	2.080000	0.000000	0.000000
H 	2.715106	-0.464249	-0.617344
H 	2.665511	0.464249	0.617344
O 	-0.000000	-2.080000	0.000000
H 	-0.442421	-2.715106	-0.633169
H 	0.442421	-2.665511	0.633169
O 	-2.080000	0.000000	0.000000
H 	-2.715106	0.420054	-0.648224
H 	-2.665511	-0.420054	0.648224
O 	0.000000	0.000000	2.080000
H 	-0.662489	0.397175	2.715106
H 	0.662489	-0.397175	2.665511
O 	0.000000	-0.000000	-2.080000
H 	0.675946	0.373813	-2.715106
H 	-0.675946	-0.373813	-2.665511
