24
06/06/2024 01:53, XYZ structure generated by mol3D Class, molSimplify
Fe 	0.000000	0.000000	0.000000
B 	0.000000	2.100000	0.000000
C 	0.531802	2.937779	1.255115
Cl 	1.895798	3.963336	0.749005
Cl 	-0.780595	3.963332	1.883013
Cl 	1.071829	1.818695	2.529643
N 	-0.531802	2.837816	-1.255115
O 	-0.987157	2.120468	-2.329807
O 	-0.544948	4.063503	-1.286142
O 	2.080000	-0.000000	0.000000
H 	2.715106	-0.627620	-0.450259
H 	2.665511	0.627620	0.450259
O 	0.000000	-2.080000	0.000000
H 	-0.611524	-2.715106	-0.471888
H 	0.611524	-2.665511	0.471888
O 	-2.080000	0.000000	0.000000
H 	-2.715106	0.594683	-0.492943
H 	-2.665511	-0.594683	0.492943
O 	0.000000	0.000000	2.080000
H 	-0.570909	0.520291	2.715106
H 	0.570909	-0.520291	2.665511
O 	0.000000	-0.000000	-2.080000
H 	0.430993	0.641003	-2.715106
H 	-0.430993	-0.641003	-2.665511
