26
06/06/2024 01:16, XYZ structure generated by mol3D Class, molSimplify
Fe 	0.000000	0.000000	0.000000
B 	0.000000	2.100000	-0.000000
C 	-1.383409	2.900000	-0.078617
O 	-1.383409	4.170900	-0.078617
N 	-2.654415	2.165000	-0.150846
C 	1.383409	2.900000	0.078617
O 	2.482267	2.264550	0.141063
O 	1.383409	4.320000	0.078617
H 	-2.654415	1.145000	-0.150846
H 	-3.536338	2.675000	-0.200964
H 	2.248039	4.820000	0.127752
O 	2.080000	0.000000	-0.000000
H 	2.715106	-0.257386	-0.728280
H 	2.665511	0.257386	0.728280
O 	0.000000	-2.080000	0.000000
H 	-0.231812	-2.715106	-0.736819
H 	0.231812	-2.665511	0.736819
O 	-2.080000	0.000000	0.000000
H 	-2.715106	-0.007223	-0.772391
H 	-2.665511	0.007223	0.772391
O 	0.000000	0.000000	2.080000
H 	-0.771668	-0.034175	2.715106
H 	0.771668	0.034175	2.665511
O 	0.000000	-0.000000	-2.080000
H 	0.772151	-0.020567	-2.715106
H 	-0.772151	0.020567	-2.665511
