27
06/06/2024 02:07, XYZ structure generated by mol3D Class, molSimplify
Fe 	0.000000	0.000000	0.000000
B 	-0.000000	2.100000	0.000000
O 	-1.286937	2.776364	-0.369222
C 	-2.273297	1.794829	-0.652208
N 	-3.149189	0.923221	-0.903502
C 	1.286937	2.976053	0.369222
O 	2.377315	2.402992	0.682051
O 	1.210793	4.393842	0.347376
C 	2.352949	5.171339	0.675061
H 	2.664369	4.944550	1.673301
H 	3.146228	4.944550	-0.006244
H 	2.108890	6.210777	0.605040
O 	2.080000	0.000000	-0.000000
H 	2.715106	-0.319565	-0.703220
H 	2.665511	0.319565	0.703220
O 	0.000000	-2.080000	0.000000
H 	-0.294829	-2.715106	-0.713944
H 	0.294829	-2.665511	0.713944
O 	-2.080000	0.000000	0.000000
H 	-2.715106	0.532303	0.559726
H 	-2.665511	-0.532303	-0.559726
O 	0.000000	0.000000	2.080000
H 	0.540808	0.551513	2.715106
H 	-0.540808	-0.551513	2.665511
O 	0.000000	-0.000000	-2.080000
H 	-0.765464	0.103463	-2.715106
H 	0.765464	-0.103463	-2.665511
