35
06/06/2024 02:34, XYZ structure generated by mol3D Class, molSimplify
Fe 	0.000000	0.000000	0.000000
B 	0.000000	2.100000	0.000000
N 	-1.295111	2.837816	0.425223
C 	-1.333494	4.307261	0.437826
C 	-1.994547	5.004556	1.435500
C 	-2.311646	6.339139	1.088533
C 	-1.750825	7.008962	0.098163
C 	-1.054104	6.270501	-0.817646
C 	-0.815673	4.932950	-0.612705
C 	1.295111	2.937779	-0.425223
O 	2.357018	2.332817	-0.773879
N 	1.256728	4.407223	-0.412621
H 	-2.120744	2.303733	0.696303
H 	-2.242881	4.573120	2.382650
H 	-3.057722	6.840532	1.668944
H 	-1.837032	8.072375	0.016801
H 	-0.689293	6.740980	-1.706726
H 	-0.207216	4.390601	-1.305914
H 	0.404461	4.892754	-0.132797
H 	2.082361	4.941307	-0.683701
O 	2.080000	0.000000	0.000000
H 	2.715106	0.544136	0.548230
H 	2.665511	-0.544136	-0.548230
O 	-0.000000	-2.080000	0.000000
H 	0.524672	-2.715106	0.566886
H 	-0.524672	-2.665511	-0.566886
O 	-2.080000	0.000000	0.000000
H 	-2.715106	-0.504568	0.584851
H 	-2.665511	0.504568	-0.584851
O 	0.000000	0.000000	2.080000
H 	0.602104	-0.483850	2.715106
H 	-0.602104	0.483850	2.665511
O 	0.000000	-0.000000	-2.080000
H 	0.612681	-0.470385	-2.715106
H 	-0.612681	0.470385	-2.665511
