34
06/06/2024 00:42, XYZ structure generated by mol3D Class, molSimplify
Fe 	0.000000	0.000000	0.000000
B 	0.000000	2.100000	0.000000
S 	-0.728178	1.155000	-1.465890
C 	-1.340220	2.331197	-2.697987
S 	0.728178	1.155000	1.465890
C 	1.340220	2.331197	2.697987
C 	0.484938	2.783415	3.689228
C 	0.973562	3.904893	4.400272
C 	2.236515	4.290593	4.414421
C 	3.046510	3.755793	3.451432
C 	2.599327	2.747743	2.631825
H 	-2.097434	2.946359	-2.258552
H 	-0.532570	2.946356	-3.035895
H 	-1.752468	1.796197	-3.527882
H 	-0.459577	2.326155	3.898285
H 	0.270919	4.480497	4.965846
H 	2.606039	4.984308	5.140445
H 	4.042972	4.127635	3.334400
H 	3.271776	2.294269	1.933917
O 	2.080000	0.000000	-0.000000
H 	2.715106	-0.164920	-0.754613
H 	2.665511	0.164920	0.754613
O 	-0.000000	-2.080000	0.000000
H 	-0.138483	-2.715106	-0.759909
H 	0.138483	-2.665511	0.759909
O 	-2.080000	0.000000	0.000000
H 	-2.715106	0.111879	-0.764279
H 	-2.665511	-0.111879	0.764279
O 	0.000000	0.000000	2.080000
H 	-0.767718	0.085138	2.715106
H 	0.767718	-0.085138	2.665511
O 	0.000000	0.000000	-2.080000
H 	0.759871	0.138694	-2.715106
H 	-0.759871	-0.138694	-2.665511
