25
06/06/2024 00:55, XYZ structure generated by mol3D Class, molSimplify
Fe 	0.000000	0.000000	0.000000
B 	0.000000	2.100000	-0.000000
Cl 	-1.136101	3.230121	0.944299
C 	1.136101	2.714470	-0.944299
O 	1.912376	1.942282	-1.589518
O 	1.277045	4.122594	-1.061447
C 	2.285335	4.667936	-1.899512
H 	3.246006	4.339189	-1.561967
H 	2.129122	4.339190	-2.905705
H 	2.240643	5.736357	-1.862365
O 	2.080000	0.000000	-0.000000
H 	2.715106	0.156561	-0.756392
H 	2.665511	-0.156561	0.756392
O 	0.000000	-2.080000	0.000000
H 	0.182864	-2.715106	-0.750467
H 	-0.182864	-2.665511	0.750467
O 	-2.080000	0.000000	0.000000
H 	-2.715106	-0.208943	-0.743628
H 	-2.665511	0.208943	0.743628
O 	0.000000	0.000000	2.080000
H 	-0.735883	-0.234768	2.715106
H 	0.735883	0.234768	2.665511
O 	0.000000	-0.000000	-2.080000
H 	0.771322	0.041257	-2.715106
H 	-0.771322	-0.041257	-2.665511
