37
06/05/2024 23:43, XYZ structure generated by mol3D Class, molSimplify
Fe 	0.000000	0.000000	0.000000
B 	0.000000	2.100000	-0.000000
N 	-0.564822	2.912787	1.192834
C 	-0.546967	4.382195	1.155125
C 	-0.256091	5.033933	2.342220
C 	-0.669078	6.386985	2.369471
C 	-0.966198	7.101065	1.299039
C 	-1.175140	6.403781	0.141634
C 	-0.919063	5.055602	0.072855
O 	0.564822	2.812827	-1.192834
C 	1.082272	2.068210	-2.285624
O 	1.066835	0.797822	-2.253022
C 	1.654625	2.790541	-3.494362
H 	-0.948901	2.428064	2.003961
H 	0.236250	4.557427	3.164074
H 	-0.746001	6.864848	3.323741
H 	-1.039478	8.167929	1.335538
H 	-1.543371	6.915352	-0.723006
H 	-1.020398	4.543704	-0.861271
H 	0.896743	3.403846	-3.935238
H 	2.475950	3.403844	-3.187463
H 	1.994092	2.072417	-4.211272
O 	2.080000	0.000000	0.000000
H 	2.715106	0.766328	-0.096860
H 	2.665511	-0.766328	0.096860
O 	-0.000000	-2.080000	0.000000
H 	0.769241	-2.715106	-0.070057
H 	-0.769241	-2.665511	0.070057
O 	-2.080000	0.000000	0.000000
H 	-2.715106	-0.771217	-0.043168
H 	-2.665511	0.771217	0.043168
O 	0.000000	0.000000	2.080000
H 	0.615229	-0.467047	2.715106
H 	-0.615229	0.467047	2.665511
O 	0.000000	0.000000	-2.080000
H 	0.659302	-0.402443	-2.715106
H 	-0.659302	0.402443	-2.665511
