27
06/05/2024 23:14, XYZ structure generated by mol3D Class, molSimplify
Fe 	0.000000	0.000000	0.000000
B 	0.000000	2.100000	0.000000
N 	-0.543248	2.637386	1.348554
C 	-0.921408	1.796737	2.287298
S 	0.543248	3.307636	-1.348554
O 	1.034384	2.523652	-2.567747
O 	-0.641463	4.188577	-1.751890
N 	1.846730	4.320708	-0.738458
H 	-0.853945	0.742080	2.119828
H 	-1.296424	2.167707	3.218235
H 	2.636305	3.733586	-0.469646
H 	2.139912	4.972447	-1.466249
O 	2.080000	-0.000000	-0.000000
H 	2.715106	-0.515125	0.575575
H 	2.665511	0.515125	-0.575575
O 	0.000000	-2.080000	0.000000
H 	-0.534898	-2.715106	0.557246
H 	0.534898	-2.665511	-0.557246
O 	-2.080000	0.000000	0.000000
H 	-2.715106	0.554020	0.538239
H 	-2.665511	-0.554020	-0.538239
O 	0.000000	0.000000	2.080000
H 	0.518576	0.572467	2.715106
H 	-0.518576	-0.572467	2.665511
O 	0.000000	-0.000000	-2.080000
H 	-0.498282	0.590216	-2.715106
H 	0.498282	-0.590216	-2.665511
