32
06/06/2024 01:20, XYZ structure generated by mol3D Class, molSimplify
Fe 	0.000000	0.000000	0.000000
B 	0.000000	2.100000	0.000000
N 	-1.317487	2.837816	0.349794
C 	-1.723168	3.680482	-0.784331
C 	-2.371605	1.852216	0.629663
C 	1.317487	2.937779	-0.349794
O 	2.397741	2.332817	-0.636602
C 	1.277112	4.457205	-0.339074
H 	-1.876253	3.067115	-1.647607
H 	-2.632660	4.189811	-0.542861
H 	-0.955881	4.397890	-0.988041
H 	-2.524689	1.238845	-0.233611
H 	-2.076314	1.238848	1.455182
H 	-3.281096	2.361548	0.871134
H 	0.556121	4.799876	-1.051568
H 	1.004498	4.799875	0.637224
H 	2.242297	4.841457	-0.595332
O 	2.080000	-0.000000	-0.000000
H 	2.715106	0.088276	-0.767364
H 	2.665511	-0.088276	0.767364
O 	0.000000	-2.080000	0.000000
H 	0.115003	-2.715106	-0.763816
H 	-0.115003	-2.665511	0.763816
O 	-2.080000	0.000000	0.000000
H 	-2.715106	-0.141589	-0.759337
H 	-2.665511	0.141589	0.759337
O 	0.000000	0.000000	2.080000
H 	-0.753933	-0.168003	2.715106
H 	0.753933	0.168003	2.665511
O 	0.000000	0.000000	-2.080000
H 	-0.194213	-0.747610	-2.715106
H 	0.194213	0.747610	-2.665511
