33
06/06/2024 03:31, XYZ structure generated by mol3D Class, molSimplify
Fe 	0.000000	0.000000	0.000000
B 	0.000000	2.100000	0.000000
N 	-1.340598	2.875000	-0.068347
C 	-1.357256	3.720125	-1.271006
C 	-2.456462	1.919746	-0.125237
N 	1.340598	2.875000	0.068347
C 	2.612004	2.140000	0.133167
O 	3.711208	2.775450	0.189208
N 	2.612004	0.670000	0.133167
H 	-1.256164	3.104968	-2.140639
H 	-2.282703	4.255123	-1.318189
H 	-0.545027	4.415444	-1.229591
H 	-2.355370	1.304585	-0.994868
H 	-2.444337	1.304587	0.750167
H 	-3.381908	2.454746	-0.172419
H 	1.340598	3.895000	0.068347
H 	1.729804	0.160000	0.088190
H 	3.494204	0.160000	0.178144
O 	2.080000	-0.000000	0.000000
H 	2.715106	0.579758	0.510412
H 	2.665511	-0.579758	-0.510412
O 	-0.000000	-2.080000	0.000000
H 	0.561591	-2.715106	0.530335
H 	-0.561591	-2.665511	-0.530335
O 	-2.080000	0.000000	0.000000
H 	-2.715106	-0.008623	0.772377
H 	-2.665511	0.008623	-0.772377
O 	0.000000	0.000000	2.080000
H 	0.772207	0.018338	2.715106
H 	-0.772207	-0.018338	2.665511
O 	0.000000	0.000000	-2.080000
H 	-0.771747	-0.032343	-2.715106
H 	0.771747	0.032343	-2.665511
