21
06/05/2024 22:54, XYZ structure generated by mol3D Class, molSimplify
Fe 	0.000000	0.000000	0.000000
B 	0.000000	2.100000	0.000000
N 	1.021837	2.656776	1.023889
Cl 	-1.021837	3.269231	-1.023889
H 	0.534486	3.227648	1.714537
H 	1.489998	1.881425	1.492990
O 	2.080000	-0.000000	-0.000000
H 	2.715106	-0.469209	0.613582
H 	2.665511	0.469209	-0.613582
O 	-0.000000	-2.080000	0.000000
H 	-0.490337	-2.715106	0.596833
H 	0.490337	-2.665511	-0.596833
O 	-2.080000	0.000000	0.000000
H 	-2.715106	0.510867	0.579357
H 	-2.665511	-0.510867	-0.579357
O 	0.000000	0.000000	2.080000
H 	0.246304	0.732103	2.715106
H 	-0.246304	-0.732103	2.665511
O 	0.000000	0.000000	-2.080000
H 	-0.656819	0.406484	-2.715106
H 	0.656819	-0.406484	-2.665511
