41
06/05/2024 23:22, XYZ structure generated by mol3D Class, molSimplify
Fe 	0.000000	0.000000	0.000000
B 	0.000000	2.100000	0.000000
O 	0.401608	1.350000	-1.235399
C 	0.781797	2.060000	-2.404910
C 	0.283965	1.660581	-3.634216
C 	0.949426	2.242844	-4.738834
C 	1.711159	3.319543	-4.671750
C 	2.114100	3.702525	-3.422585
C 	1.607848	3.094282	-2.299356
O 	-0.401608	1.350000	1.235399
C 	-0.781797	2.060000	2.404910
C 	-0.346970	1.541189	3.613349
C 	-1.070442	2.013885	4.733706
C 	-1.830989	3.093506	4.732953
C 	-2.169976	3.597712	3.508079
C 	-1.604457	3.101303	2.358444
H 	-0.529995	0.974004	-3.739010
H 	0.826964	1.778495	-5.695015
H 	1.997598	3.862974	-5.547841
H 	2.834032	4.487194	-3.318224
H 	1.881723	3.457334	-1.330808
H 	0.462587	0.846020	3.692454
H 	-0.996159	1.457939	5.644917
H 	-2.164013	3.549161	5.642004
H 	-2.885955	4.390271	3.443870
H 	-1.829000	3.557952	1.417194
O 	2.080000	0.000000	0.000000
H 	2.715106	-0.479758	-0.605369
H 	2.665511	0.479758	0.605369
O 	0.000000	-2.080000	0.000000
H 	-0.458339	-2.715106	-0.621744
H 	0.458339	-2.665511	0.621744
O 	-2.080000	0.000000	0.000000
H 	-2.715106	0.436361	-0.637361
H 	-2.665511	-0.436361	0.637361
O 	0.000000	0.000000	2.080000
H 	-0.703451	0.319055	2.715106
H 	0.703451	-0.319055	2.665511
O 	0.000000	0.000000	-2.080000
H 	-0.679481	-0.367348	-2.715106
H 	0.679481	0.367348	-2.665511
