34
06/06/2024 02:39, XYZ structure generated by mol3D Class, molSimplify
Fe 	0.000000	0.000000	0.000000
B 	0.000000	2.100000	0.000000
C 	0.012336	2.900000	-1.385586
C 	-1.227971	3.773874	-1.477152
C 	1.254078	3.773871	-1.455054
C 	0.022621	1.912254	-2.540857
C 	-0.012336	2.900000	1.385586
Cl 	-0.024380	1.743306	2.738477
Cl 	1.440132	3.923348	1.492815
Cl 	-1.466482	3.923349	1.466928
H 	-1.235211	4.469195	-0.663902
H 	-1.219721	4.308872	-2.403763
H 	-2.102091	3.158714	-1.428250
H 	2.127192	3.158714	-1.390597
H 	1.262329	4.308868	-2.381666
H 	1.246833	4.469190	-0.641802
H 	0.895732	1.297093	-2.476399
H 	-0.851500	1.297095	-2.491955
H 	0.030871	2.447254	-3.467468
O 	2.080000	-0.000000	0.000000
H 	2.715106	-0.566975	0.524575
H 	2.665511	0.566975	-0.524575
O 	-0.000000	-2.080000	0.000000
H 	-0.584937	-2.715106	0.504469
H 	0.584937	-2.665511	-0.504469
O 	-2.080000	0.000000	0.000000
H 	-2.715106	0.602186	0.483747
H 	-2.665511	-0.602186	-0.483747
O 	0.000000	0.000000	2.080000
H 	-0.772354	0.010455	2.715106
H 	0.772354	-0.010455	2.665511
O 	0.000000	0.000000	-2.080000
H 	0.772354	0.010455	-2.715106
H 	-0.772354	-0.010455	-2.665511
