21
06/06/2024 01:47, XYZ structure generated by mol3D Class, molSimplify
Fe 	0.000000	0.000000	0.000000
B 	0.000000	2.100000	0.000000
Cl 	-1.416069	3.269231	0.295379
N 	1.416069	2.656776	-0.295379
O 	2.459087	1.795569	-0.512943
O 	1.602769	3.868003	-0.334323
O 	2.080000	-0.000000	0.000000
H 	2.715106	0.333970	0.696494
H 	2.665511	-0.333970	-0.696494
O 	-0.000000	-2.080000	0.000000
H 	0.309459	-2.715106	0.707725
H 	-0.309459	-2.665511	-0.707725
O 	-2.080000	0.000000	0.000000
H 	-2.715106	-0.284571	0.718094
H 	-2.665511	0.284571	-0.718094
O 	0.000000	0.000000	2.080000
H 	0.727588	-0.259337	2.715106
H 	-0.727588	0.259337	2.665511
O 	0.000000	-0.000000	-2.080000
H 	-0.771411	0.039561	-2.715106
H 	0.771411	-0.039561	-2.665511
