30
06/05/2024 22:57, XYZ structure generated by mol3D Class, molSimplify
Fe 	0.000000	0.000000	0.000000
B 	0.000000	2.100000	0.000000
C 	-1.458196	2.694448	-0.283365
O 	-1.635919	3.952386	-0.317901
C 	-2.630925	1.754676	-0.511257
S 	1.458196	3.268533	0.283365
O 	2.727531	2.449860	0.530029
O 	1.652300	4.150986	-0.951899
C 	1.123919	4.312173	1.723911
F 	0.020835	5.023620	1.509553
F 	0.955238	3.545299	2.797387
F 	2.150057	5.134474	1.923316
H 	-2.433320	1.137714	-1.362849
H 	-2.766631	1.137716	0.352367
H 	-3.518365	2.327048	-0.683709
O 	2.080000	-0.000000	0.000000
H 	2.715106	-0.117744	0.763398
H 	2.665511	0.117744	-0.763398
O 	0.000000	-2.080000	0.000000
H 	-0.144314	-2.715106	0.758824
H 	0.144314	-2.665511	-0.758824
O 	-2.080000	0.000000	0.000000
H 	-2.715106	0.043549	-0.771196
H 	-2.665511	-0.043549	0.771196
O 	0.000000	0.000000	2.080000
H 	-0.772246	0.016608	2.715106
H 	0.772246	-0.016608	2.665511
O 	0.000000	0.000000	-2.080000
H 	-0.010353	-0.772355	-2.715106
H 	0.010353	0.772355	-2.665511
