31
06/06/2024 01:02, XYZ structure generated by mol3D Class, molSimplify
Fe 	0.000000	0.000000	0.000000
B 	0.000000	2.100000	0.000000
O 	-1.295069	2.776364	-0.339600
C 	-2.444442	1.998867	-0.640995
O 	-2.375863	0.729946	-0.623012
C 	-3.756778	2.684250	-0.985124
C 	1.295069	2.976053	0.339600
O 	2.392337	2.402992	0.627332
O 	1.218444	4.393842	0.319507
C 	2.367817	5.171339	0.620902
H 	-4.066318	3.295291	-0.163105
H 	-3.623115	3.295289	-1.853263
H 	-4.504718	1.944642	-1.181253
H 	2.702056	4.944550	1.611736
H 	3.145257	4.944550	-0.078422
H 	2.122215	6.210777	0.556499
O 	2.080000	0.000000	0.000000
H 	2.715106	-0.330190	-0.698294
H 	2.665511	0.330190	0.698294
O 	-0.000000	-2.080000	0.000000
H 	-0.305619	-2.715106	-0.709392
H 	0.305619	-2.665511	0.709392
O 	-2.080000	0.000000	0.000000
H 	-2.715106	-0.221871	-0.739874
H 	-2.665511	0.221871	0.739874
O 	0.000000	0.000000	2.080000
H 	-0.731680	-0.247557	2.715106
H 	0.731680	0.247557	2.665511
O 	0.000000	-0.000000	-2.080000
H 	0.722595	-0.272941	-2.715106
H 	-0.722595	0.272941	-2.665511
