28
06/06/2024 02:47, XYZ structure generated by mol3D Class, molSimplify
Fe 	0.000000	0.000000	0.000000
B 	0.000000	2.100000	0.000000
N 	-1.342294	2.875000	0.011093
O 	-1.424109	3.662633	-1.106870
N 	1.342294	2.875000	-0.011093
C 	2.615307	2.140000	-0.021613
O 	3.715902	2.775450	-0.030708
N 	2.615307	0.670000	-0.021613
H 	-2.117546	2.212171	0.017499
H 	-0.664056	4.312464	-1.113147
H 	1.342294	3.895000	-0.011093
H 	1.731992	0.160000	-0.014313
H 	3.498623	0.160000	-0.028912
O 	2.080000	-0.000000	0.000000
H 	2.715106	-0.535707	-0.556469
H 	2.665511	0.535707	0.556469
O 	0.000000	-2.080000	0.000000
H 	-0.515960	-2.715106	-0.574826
H 	0.515960	-2.665511	0.574826
O 	-2.080000	0.000000	0.000000
H 	-2.715106	0.337529	-0.694776
H 	-2.665511	-0.337529	0.694776
O 	0.000000	0.000000	2.080000
H 	-0.706132	0.313076	2.715106
H 	0.706132	-0.313076	2.665511
O 	0.000000	0.000000	-2.080000
H 	0.288242	-0.716628	-2.715106
H 	-0.288242	0.716628	-2.665511
