25
06/05/2024 23:49, XYZ structure generated by mol3D Class, molSimplify
Fe 	0.000000	0.000000	0.000000
B 	0.000000	2.100000	0.000000
N 	-1.235585	2.837816	0.575724
N 	-2.217025	2.172358	1.033028
N 	-3.198465	1.506900	1.490332
C 	1.235585	2.937779	-0.575724
O 	2.248684	2.332817	-1.047780
N 	1.198965	4.407223	-0.558661
H 	0.385871	4.892754	-0.179798
H 	1.986651	4.941307	-0.925685
O 	2.080000	0.000000	0.000000
H 	2.715106	-0.735960	-0.234528
H 	2.665511	0.735960	0.234528
O 	-0.000000	-2.080000	0.000000
H 	-0.727326	-2.715106	-0.260070
H 	0.727326	-2.665511	0.260070
O 	-2.080000	0.000000	0.000000
H 	-2.715106	0.684053	-0.358763
H 	-2.665511	-0.684053	0.358763
O 	0.000000	0.000000	2.080000
H 	-0.382418	0.671116	2.715106
H 	0.382418	-0.671116	2.665511
O 	0.000000	-0.000000	-2.080000
H 	0.405606	0.657361	-2.715106
H 	-0.405606	-0.657361	-2.665511
