37
06/06/2024 02:46, XYZ structure generated by mol3D Class, molSimplify
Fe 	0.000000	0.000000	0.000000
B 	0.000000	2.100000	0.000000
N 	1.363092	2.837816	-0.010324
C 	1.473249	3.680482	1.189126
C 	2.453700	1.852216	-0.018585
C 	-1.363092	2.937779	0.010324
C 	-2.573936	2.265218	0.019496
C 	-3.689016	3.088217	-0.265673
C 	-3.684460	4.406873	-0.193974
C 	-2.458013	5.008546	-0.136808
C 	-1.312147	4.264671	0.009939
H 	1.406301	3.067115	2.063310
H 	2.414223	4.189811	1.182000
H 	0.679403	4.397890	1.195134
H 	2.386752	1.238845	0.855597
H 	2.373518	1.238848	-0.891654
H 	3.394673	2.361548	-0.025712
H 	-2.658402	1.218287	0.223703
H 	-4.599253	2.608827	-0.559876
H 	-4.591754	4.973932	-0.181299
H 	-2.389577	6.074022	-0.207365
H 	-0.370216	4.759079	0.124949
O 	2.080000	0.000000	0.000000
H 	2.715106	0.001918	0.772422
H 	2.665511	-0.001918	-0.772422
O 	0.000000	-2.080000	0.000000
H 	-0.025041	-2.715106	0.772019
H 	0.025041	-2.665511	-0.772019
O 	-2.080000	0.000000	0.000000
H 	-2.715106	0.240515	-0.734025
H 	-2.665511	-0.240515	0.734025
O 	0.000000	0.000000	2.080000
H 	-0.741971	0.214752	2.715106
H 	0.741971	-0.214752	2.665511
O 	0.000000	-0.000000	-2.080000
H 	0.702863	0.320348	-2.715106
H 	-0.702863	-0.320348	-2.665511
