33
06/05/2024 23:10, XYZ structure generated by mol3D Class, molSimplify
Fe 	0.000000	0.000000	0.000000
B 	0.000000	2.100000	0.000000
N 	-0.309349	2.637386	-1.420570
C 	-0.362127	4.086308	-1.662933
C 	-1.493307	4.534893	-2.324573
C 	-1.436047	5.898425	-2.698141
C 	-0.597381	6.780698	-2.186038
C 	0.462845	6.276387	-1.485294
C 	0.543850	4.936137	-1.193639
S 	0.309349	3.307636	1.420570
C 	0.640107	2.380441	2.939454
N 	0.870535	1.734495	3.997609
H 	-0.476299	1.985646	-2.187227
H 	-2.334152	3.907241	-2.534173
H 	-2.119812	6.238346	-3.447687
H 	-0.739909	7.833573	-2.312690
H 	1.240662	6.934912	-1.159343
H 	1.344229	4.573933	-0.582818
O 	2.080000	-0.000000	0.000000
H 	2.715106	-0.608606	0.475645
H 	2.665511	0.608606	-0.475645
O 	-0.000000	-2.080000	0.000000
H 	-0.624835	-2.715106	0.454115
H 	0.624835	-2.665511	-0.454115
O 	-2.080000	0.000000	0.000000
H 	-2.715106	0.640303	0.432032
H 	-2.665511	-0.640303	-0.432032
O 	0.000000	0.000000	2.080000
H 	-0.453925	0.624974	2.715106
H 	0.453925	-0.624974	2.665511
O 	0.000000	-0.000000	-2.080000
H 	-0.771059	-0.045905	-2.715106
H 	0.771059	0.045905	-2.665511
