33
06/06/2024 02:46, XYZ structure generated by mol3D Class, molSimplify
Fe 	0.000000	0.000000	0.000000
B 	0.000000	2.100000	-0.000000
O 	-1.205700	1.423636	-0.582082
C 	-2.275758	2.201133	-1.098679
C 	-3.579677	1.858967	-0.780426
C 	-4.553290	2.510404	-1.573999
C 	-4.329617	3.595004	-2.293463
C 	-3.019729	3.918067	-2.515443
C 	-2.007435	3.242450	-1.877717
C 	1.205700	1.223947	0.582082
Cl 	2.480300	2.303365	1.197427
Cl 	0.607207	0.196933	1.907015
Cl 	1.870931	0.196932	-0.710632
H 	-3.828142	1.164981	-0.004831
H 	-5.539356	2.095394	-1.592464
H 	-5.130404	4.189008	-2.681792
H 	-2.779504	4.708394	-3.195572
H 	-0.993707	3.558277	-2.010041
O 	2.080000	-0.000000	0.000000
H 	2.715106	0.688126	-0.350888
H 	2.665511	-0.688126	0.350888
O 	-0.000000	-2.080000	0.000000
H 	0.699953	-2.715106	-0.326659
H 	-0.699953	-2.665511	0.326659
O 	-2.080000	0.000000	0.000000
H 	-2.715106	-0.067562	0.769464
H 	-2.665511	0.067562	-0.769464
O 	0.000000	0.000000	2.080000
H 	0.771353	-0.040666	2.715106
H 	-0.771353	0.040666	2.665511
O 	0.000000	-0.000000	-2.080000
H 	-0.772303	-0.013722	-2.715106
H 	0.772303	0.013722	-2.665511
