23
06/06/2024 03:32, XYZ structure generated by mol3D Class, molSimplify
Fe 	0.000000	0.000000	0.000000
B 	0.000000	2.100000	0.000000
C 	-1.369651	2.900000	-0.209897
C 	-2.485793	3.551928	-0.380945
C 	1.369651	2.900000	0.209897
O 	2.457581	2.264550	0.376622
Cl 	1.369651	4.680000	0.209897
H 	-3.401747	4.086928	-0.521314
O 	2.080000	0.000000	0.000000
H 	2.715106	-0.216319	-0.741516
H 	2.665511	0.216319	0.741516
O 	0.000000	-2.080000	0.000000
H 	-0.190309	-2.715106	-0.748614
H 	0.190309	-2.665511	0.748614
O 	-2.080000	0.000000	0.000000
H 	-2.715106	0.164067	-0.754799
H 	-2.665511	-0.164067	0.754799
O 	0.000000	0.000000	2.080000
H 	-0.760065	0.137625	2.715106
H 	0.760065	-0.137625	2.665511
O 	0.000000	-0.000000	-2.080000
H 	0.764405	0.111015	-2.715106
H 	-0.764405	-0.111015	-2.665511
