21
06/06/2024 03:23, XYZ structure generated by mol3D Class, molSimplify
Fe 	0.000000	0.000000	0.000000
B 	0.000000	2.100000	0.000000
O 	-0.549408	2.776364	-1.220935
C 	0.549408	2.976053	1.220935
N 	0.982398	3.666474	2.183159
H 	-0.845949	2.085142	-1.879931
O 	2.080000	0.000000	0.000000
H 	2.715106	0.268154	-0.724385
H 	2.665511	-0.268154	0.724385
O 	-0.000000	-2.080000	0.000000
H 	0.293272	-2.715106	-0.714585
H 	-0.293272	-2.665511	0.714585
O 	-2.080000	0.000000	0.000000
H 	-2.715106	-0.318032	-0.703915
H 	-2.665511	0.318032	0.703915
O 	0.000000	0.000000	2.080000
H 	-0.692387	-0.342404	2.715106
H 	0.692387	0.342404	2.665511
O 	0.000000	-0.000000	-2.080000
H 	0.604261	0.481154	-2.715106
H 	-0.604261	-0.481154	-2.665511
