24
06/06/2024 03:02, XYZ structure generated by mol3D Class, molSimplify
Fe 	0.000000	0.000000	0.000000
B 	0.000000	2.100000	0.000000
C 	-1.323132	2.900000	0.411486
C 	1.323132	2.900000	-0.411486
O 	2.374113	2.264550	-0.738335
Cl 	1.323132	4.680000	-0.411486
H 	-1.117814	3.515161	1.262557
H 	-1.636701	3.515159	-0.405921
H 	-2.099726	2.204679	0.653003
O 	2.080000	0.000000	0.000000
H 	2.715106	0.604165	0.481274
H 	2.665511	-0.604165	-0.481274
O 	0.000000	-2.080000	0.000000
H 	0.587001	-2.715106	0.502065
H 	-0.587001	-2.665511	-0.502065
O 	-2.080000	0.000000	0.000000
H 	-2.715106	-0.569122	0.522246
H 	-2.665511	0.569122	-0.522246
O 	0.000000	0.000000	2.080000
H 	0.541790	-0.550549	2.715106
H 	-0.541790	0.550549	2.665511
O 	0.000000	-0.000000	-2.080000
H 	-0.770904	-0.048443	-2.715106
H 	0.770904	0.048443	-2.665511
