24
06/06/2024 02:14, XYZ structure generated by mol3D Class, molSimplify
Fe 	0.000000	0.000000	0.000000
B 	-0.000000	2.100000	0.000000
C 	1.172747	2.937779	-0.694832
C 	2.128430	3.620493	-1.261058
N 	-1.172747	2.837816	0.694832
C 	-2.137074	2.148927	1.266180
H 	2.912704	4.180757	-1.725728
H 	-2.111775	1.079331	1.251191
H 	-2.946648	2.658258	1.745839
O 	2.080000	0.000000	-0.000000
H 	2.715106	-0.125501	0.762161
H 	2.665511	0.125501	-0.762161
O 	0.000000	-2.080000	0.000000
H 	-0.152024	-2.715106	0.757317
H 	0.152024	-2.665511	-0.757317
O 	-2.080000	0.000000	0.000000
H 	-2.715106	0.728789	-0.255942
H 	-2.665511	-0.728789	0.255942
O 	0.000000	0.000000	2.080000
H 	-0.281221	0.719413	2.715106
H 	0.281221	-0.719413	2.665511
O 	0.000000	-0.000000	-2.080000
H 	0.306157	0.709160	-2.715106
H 	-0.306157	-0.709160	-2.665511
