27
06/06/2024 02:50, XYZ structure generated by mol3D Class, molSimplify
Fe 	0.000000	0.000000	0.000000
B 	0.000000	2.100000	-0.000000
C 	-1.045507	2.937779	0.874667
O 	-1.018718	4.208199	0.852255
O 	-2.003326	2.261844	1.675975
C 	-2.931214	3.005372	2.452242
N 	1.045507	2.837816	-0.874667
O 	1.940722	2.120468	-1.623600
O 	1.071353	4.063503	-0.896289
H 	-2.401119	3.621859	3.147830
H 	-3.522292	3.621856	1.807669
H 	-3.569413	2.332665	2.986157
O 	2.080000	0.000000	0.000000
H 	2.715106	0.173431	-0.752703
H 	2.665511	-0.173431	0.752703
O 	-0.000000	-2.080000	0.000000
H 	0.199594	-2.715106	-0.746192
H 	-0.199594	-2.665511	0.746192
O 	-2.080000	0.000000	0.000000
H 	-2.715106	-0.225514	-0.738771
H 	-2.665511	0.225514	0.738771
O 	0.000000	0.000000	2.080000
H 	-0.730451	-0.251159	2.715106
H 	0.730451	0.251159	2.665511
O 	0.000000	-0.000000	-2.080000
H 	0.772404	-0.005683	-2.715106
H 	-0.772404	0.005683	-2.665511
