30
06/06/2024 00:52, XYZ structure generated by mol3D Class, molSimplify
Fe 	0.000000	0.000000	0.000000
B 	0.000000	2.100000	-0.000000
N 	-0.869650	2.912787	-0.992767
C 	-0.002297	3.759782	-1.824150
O 	0.869650	2.812827	0.992767
C 	1.666362	2.068210	1.902269
O 	1.642594	0.797822	1.875135
C 	2.547608	2.790541	2.908272
F 	3.425167	3.552873	2.262021
F 	1.791460	3.552870	3.693126
F 	3.197285	1.897920	3.649923
H 	-1.392691	2.272229	-1.589854
H 	0.680701	3.143264	-2.370336
H 	-0.602636	4.320865	-2.509481
H 	0.546381	4.431737	-1.197789
O 	2.080000	0.000000	0.000000
H 	2.715106	-0.469898	0.613054
H 	2.665511	0.469898	-0.613054
O 	0.000000	-2.080000	0.000000
H 	-0.491007	-2.715106	0.596282
H 	0.491007	-2.665511	-0.596282
O 	-2.080000	0.000000	0.000000
H 	-2.715106	0.511518	0.578783
H 	-2.665511	-0.511518	-0.578783
O 	0.000000	0.000000	2.080000
H 	0.007149	0.772392	2.715106
H 	-0.007149	-0.772392	2.665511
O 	0.000000	0.000000	-2.080000
H 	-0.282050	-0.719088	-2.715106
H 	0.282050	0.719088	-2.665511
