34
06/06/2024 01:11, XYZ structure generated by mol3D Class, molSimplify
Fe 	0.000000	0.000000	0.000000
B 	0.000000	2.100000	0.000000
C 	-0.549289	2.694448	1.380186
C 	-0.228909	2.108683	2.593776
C 	-1.103255	2.461022	3.648966
C 	-1.918716	3.499630	3.630758
C 	-2.141321	4.076710	2.411382
C 	-1.418856	3.695290	1.306639
S 	0.549289	3.268533	-1.380186
O 	1.027436	2.449860	-2.581614
O 	-0.628424	4.150986	-1.800358
N 	1.865289	4.283344	-0.800614
H 	0.604196	1.449539	2.721708
H 	-1.103775	1.842971	4.522415
H 	-2.380389	3.869633	4.522305
H 	-2.888900	4.836276	2.316069
H 	-1.558201	4.209405	0.378647
H 	2.650200	3.695214	-0.520582
H 	2.161731	4.913980	-1.545476
O 	2.080000	0.000000	0.000000
H 	2.715106	0.603387	0.482248
H 	2.665511	-0.603387	-0.482248
O 	0.000000	-2.080000	0.000000
H 	0.586190	-2.715106	0.503012
H 	-0.586190	-2.665511	-0.503012
O 	-2.080000	0.000000	0.000000
H 	-2.715106	-0.568278	0.523164
H 	-2.665511	0.568278	-0.523164
O 	0.000000	0.000000	2.080000
H 	0.697950	-0.330917	2.715106
H 	-0.697950	0.330917	2.665511
O 	0.000000	-0.000000	-2.080000
H 	0.769470	0.067497	-2.715106
H 	-0.769470	-0.067497	-2.665511
