28
06/06/2024 02:14, XYZ structure generated by mol3D Class, molSimplify
Fe 	0.000000	0.000000	0.000000
B 	0.000000	2.100000	0.000000
N 	-0.895177	2.837816	1.028001
N 	-1.833668	3.651820	0.340227
C 	0.895177	2.937779	-1.028001
O 	1.629164	2.332817	-1.870895
C 	0.867744	4.457205	-0.996498
H 	-1.392152	2.153931	1.598716
H 	-2.422754	4.137349	1.016718
H 	-1.336688	4.335704	-0.230487
H 	-0.128673	4.799876	-1.182586
H 	1.189049	4.799875	-0.035124
H 	1.523546	4.841457	-1.749607
O 	2.080000	-0.000000	0.000000
H 	2.715106	0.730500	0.251019
H 	2.665511	-0.730500	-0.251019
O 	-0.000000	-2.080000	0.000000
H 	0.721294	-2.715106	0.276360
H 	-0.721294	-2.665511	-0.276360
O 	-2.080000	0.000000	0.000000
H 	-2.715106	-0.711210	0.301364
H 	-2.665511	0.711210	-0.301364
O 	0.000000	0.000000	2.080000
H 	0.326001	-0.700259	2.715106
H 	-0.326001	0.700259	2.665511
O 	0.000000	-0.000000	-2.080000
H 	-0.350242	-0.688455	-2.715106
H 	0.350242	0.688455	-2.665511
