28
06/06/2024 03:33, XYZ structure generated by mol3D Class, molSimplify
Fe 	0.000000	0.000000	0.000000
B 	0.000000	2.100000	0.000000
O 	1.298143	2.812827	-0.238120
S 	2.545009	1.665171	-0.466835
O 	2.666189	0.787945	0.781391
O 	2.215278	0.787948	-1.676808
C 	4.111435	2.525316	-0.754166
N 	-1.298143	2.912787	0.238120
O 	-2.483781	2.261738	0.455603
O 	-1.263913	4.138443	0.231841
H 	4.026713	3.138621	-1.626852
H 	4.341963	3.138618	0.091775
H 	4.891638	1.807192	-0.897280
O 	2.080000	0.000000	-0.000000
H 	2.715106	0.462903	-0.618353
H 	2.665511	-0.462903	0.618353
O 	0.000000	-2.080000	0.000000
H 	0.484202	-2.715106	-0.601821
H 	-0.484202	-2.665511	0.601821
O 	-2.080000	0.000000	0.000000
H 	-2.715106	-0.466806	0.615412
H 	-2.665511	0.466806	-0.615412
O 	0.000000	0.000000	2.080000
H 	0.631329	-0.445044	2.715106
H 	-0.631329	0.445044	2.665511
O 	0.000000	-0.000000	-2.080000
H 	-0.422739	0.646476	-2.715106
H 	0.422739	-0.646476	-2.665511
