33
06/06/2024 02:00, XYZ structure generated by mol3D Class, molSimplify
Fe 	0.000000	0.000000	0.000000
B 	0.000000	2.100000	0.000000
N 	-0.043275	2.637386	-1.453218
C 	1.149914	3.457253	-1.708205
C 	-0.071257	1.507297	-2.392908
S 	0.043275	3.307636	1.453218
O 	0.082398	2.523652	2.767036
O 	1.290288	4.188577	1.347498
C 	-1.436344	4.349488	1.416155
F 	-1.470343	5.030790	0.274415
F 	-2.520030	3.583927	1.508029
F 	-1.405891	5.199306	2.438791
H 	2.027933	2.860481	-1.574612
H 	1.120042	3.828220	-2.711396
H 	1.170278	4.279833	-1.024211
H 	0.806758	0.910521	-2.259314
H 	-0.939769	0.910523	-2.207305
H 	-0.101131	1.878267	-3.396098
O 	2.080000	0.000000	-0.000000
H 	2.715106	0.653151	-0.412351
H 	2.665511	-0.653151	0.412351
O 	0.000000	-2.080000	0.000000
H 	0.667144	-2.715106	-0.389305
H 	-0.667144	-2.665511	0.389305
O 	-2.080000	0.000000	0.000000
H 	-2.715106	-0.680325	-0.365785
H 	-2.665511	0.680325	0.365785
O 	0.000000	0.000000	2.080000
H 	0.553146	-0.539138	2.715106
H 	-0.553146	0.539138	2.665511
O 	0.000000	-0.000000	-2.080000
H 	-0.771937	0.027432	-2.715106
H 	0.771937	-0.027432	-2.665511
