21
06/06/2024 01:39, XYZ structure generated by mol3D Class, molSimplify
Fe 	0.000000	0.000000	0.000000
B 	0.000000	2.100000	0.000000
N 	-0.128879	2.656776	1.440795
N 	-0.216940	1.857865	2.425261
N 	-0.305001	1.058954	3.409726
Cl 	0.128879	3.269231	-1.440795
O 	2.080000	-0.000000	0.000000
H 	2.715106	-0.718897	-0.282537
H 	2.665511	0.718897	0.282537
O 	-0.000000	-2.080000	0.000000
H 	-0.708599	-2.715106	-0.307454
H 	0.708599	-2.665511	0.307454
O 	-2.080000	0.000000	0.000000
H 	-2.715106	0.697437	-0.331996
H 	-2.665511	-0.697437	0.331996
O 	0.000000	0.000000	2.080000
H 	-0.736855	-0.231701	2.715106
H 	0.736855	0.231701	2.665511
O 	0.000000	-0.000000	-2.080000
H 	0.260460	0.727187	-2.715106
H 	-0.260460	-0.727187	-2.665511
