28
06/06/2024 00:07, XYZ structure generated by mol3D Class, molSimplify
Fe 	0.000000	0.000000	0.000000
B 	0.000000	2.100000	0.000000
N 	-1.349131	2.837816	-0.194863
N 	-2.420763	2.172358	-0.349646
N 	-3.492395	1.506900	-0.504428
C 	1.349131	2.937779	0.194863
O 	2.455332	2.332817	0.354639
N 	1.309147	4.407223	0.189088
C 	0.029648	5.106959	0.004282
H 	2.169218	4.941307	0.313314
H 	-0.168054	5.720330	0.858443
H 	0.081728	5.720328	-0.870913
H 	-0.756065	4.389550	-0.109203
O 	2.080000	0.000000	0.000000
H 	2.715106	0.498061	-0.590402
H 	2.665511	-0.498061	0.590402
O 	-0.000000	-2.080000	0.000000
H 	0.518363	-2.715106	-0.572661
H 	-0.518363	-2.665511	0.572661
O 	-2.080000	0.000000	0.000000
H 	-2.715106	0.240626	0.733988
H 	-2.665511	-0.240626	-0.733988
O 	0.000000	0.000000	2.080000
H 	0.725144	0.266095	2.715106
H 	-0.725144	-0.266095	2.665511
O 	0.000000	-0.000000	-2.080000
H 	-0.594442	0.493233	-2.715106
H 	0.594442	-0.493233	-2.665511
