26
06/06/2024 00:11, XYZ structure generated by mol3D Class, molSimplify
Fe 	0.000000	0.000000	0.000000
B 	0.000000	2.100000	0.000000
N 	-1.299516	2.912787	0.230512
O 	-1.544305	3.702163	-0.862129
O 	1.299516	2.812827	-0.230512
C 	2.336019	1.859803	-0.414370
H 	-2.081094	2.272229	0.369151
H 	-0.778049	4.330159	-0.998045
H 	2.415628	1.246498	0.458796
H 	2.110450	1.246500	-1.261648
H 	3.263007	2.368286	-0.578802
O 	2.080000	0.000000	0.000000
H 	2.715106	0.065372	-0.769653
H 	2.665511	-0.065372	0.769653
O 	-0.000000	-2.080000	0.000000
H 	0.092193	-2.715106	-0.766903
H 	-0.092193	-2.665511	0.766903
O 	-2.080000	0.000000	0.000000
H 	-2.715106	-0.118901	-0.763218
H 	-2.665511	0.118901	0.763218
O 	0.000000	0.000000	2.080000
H 	-0.758604	-0.145465	2.715106
H 	0.758604	0.145465	2.665511
O 	0.000000	-0.000000	-2.080000
H 	0.753065	-0.171851	-2.715106
H 	-0.753065	0.171851	-2.665511
