31
06/06/2024 01:52, XYZ structure generated by mol3D Class, molSimplify
Fe 	0.000000	0.000000	0.000000
B 	0.000000	2.100000	0.000000
N 	-1.383824	2.656776	-0.421346
C 	-1.602557	4.108885	-0.487945
C 	-2.774531	4.650395	0.013859
C 	-3.016180	5.980590	-0.403560
C 	-2.098533	6.786086	-0.906666
C 	-0.935620	6.198958	-1.321834
C 	-0.683205	4.872711	-1.066395
Cl 	1.383824	3.269231	0.421346
H 	-2.142695	2.015586	-0.652406
H 	-3.437031	4.111670	0.658661
H 	-4.011655	6.360273	-0.304714
H 	-2.256593	7.841431	-0.985174
H 	-0.211702	6.780663	-1.853305
H 	0.262755	4.451575	-1.336033
O 	2.080000	-0.000000	0.000000
H 	2.715106	0.664020	0.394611
H 	2.665511	-0.664020	-0.394611
O 	0.000000	-2.080000	0.000000
H 	0.649844	-2.715106	0.417544
H 	-0.649844	-2.665511	-0.417544
O 	-2.080000	0.000000	0.000000
H 	-2.715106	0.009733	0.772363
H 	-2.665511	-0.009733	-0.772363
O 	0.000000	0.000000	2.080000
H 	0.771553	0.036682	2.715106
H 	-0.771553	-0.036682	2.665511
O 	0.000000	0.000000	-2.080000
H 	-0.772414	0.004130	-2.715106
H 	0.772414	-0.004130	-2.665511
