31
06/05/2024 23:14, XYZ structure generated by mol3D Class, molSimplify
Fe 	0.000000	0.000000	0.000000
B 	0.000000	2.100000	0.000000
N 	-1.321510	2.837816	-0.334272
C 	-1.125163	3.680482	-1.522659
C 	-2.378848	1.852216	-0.601723
C 	1.321510	2.937779	0.334272
O 	2.405063	2.332817	0.608354
N 	1.282344	4.407223	0.324365
H 	-0.839602	3.067115	-2.351596
H 	-2.037432	4.189811	-1.753416
H 	-0.355535	4.397890	-1.327979
H 	-2.093287	1.238845	-1.430657
H 	-2.521767	1.238848	0.263293
H 	-3.291116	2.361548	-0.832479
H 	0.412705	4.892754	0.104393
H 	2.124807	4.941307	0.537464
O 	2.080000	-0.000000	-0.000000
H 	2.715106	-0.114226	-0.763932
H 	2.665511	0.114226	0.763932
O 	-0.000000	-2.080000	0.000000
H 	-0.087495	-2.715106	-0.767453
H 	0.087495	-2.665511	0.767453
O 	-2.080000	0.000000	0.000000
H 	-2.715106	0.060658	-0.770039
H 	-2.665511	-0.060658	0.770039
O 	0.000000	0.000000	2.080000
H 	-0.771687	0.033747	2.715106
H 	0.771687	-0.033747	2.665511
O 	0.000000	0.000000	-2.080000
H 	0.006795	-0.772395	-2.715106
H 	-0.006795	0.772395	-2.665511
