36
06/05/2024 22:48, XYZ structure generated by mol3D Class, molSimplify
Fe 	0.000000	0.000000	0.000000
B 	-0.000000	2.100000	-0.000000
C 	-1.287955	2.976053	-0.365654
C 	-2.482827	2.654000	0.256543
C 	-3.605294	3.335910	-0.269877
C 	-3.539003	4.426893	-1.011077
C 	-2.315388	4.728267	-1.541539
C 	-1.193789	4.023824	-1.175931
O 	1.287955	2.776364	0.365654
S 	2.476695	1.594374	0.703141
O 	2.010326	0.720386	1.869726
O 	2.692886	0.720389	-0.534473
C 	4.030827	2.410521	1.144363
H 	-2.550858	1.953131	1.062182
H 	-4.575292	2.940107	-0.052289
H 	-4.396728	5.041911	-1.187028
H 	-2.230026	5.524150	-2.251598
H 	-0.235783	4.322244	-1.547509
H 	4.356885	3.021562	0.328756
H 	3.879679	3.021560	2.009629
H 	4.774659	1.670913	1.355539
O 	2.080000	0.000000	0.000000
H 	2.715106	0.516155	0.574651
H 	2.665511	-0.516155	-0.574651
O 	-0.000000	-2.080000	0.000000
H 	0.495785	-2.715106	0.592315
H 	-0.495785	-2.665511	-0.592315
O 	-2.080000	0.000000	0.000000
H 	-2.715106	-0.474812	0.609257
H 	-2.665511	0.474812	-0.609257
O 	0.000000	0.000000	2.080000
H 	0.106571	0.765038	2.715106
H 	-0.106571	-0.765038	2.665511
O 	0.000000	-0.000000	-2.080000
H 	-0.079806	0.768291	-2.715106
H 	0.079806	-0.768291	-2.665511
