33
06/06/2024 00:42, XYZ structure generated by mol3D Class, molSimplify
Fe 	0.000000	0.000000	0.000000
B 	0.000000	2.100000	0.000000
C 	-0.817571	2.937779	1.090736
C 	0.141626	3.813535	1.880288
C 	-1.844512	3.813532	0.391560
C 	-1.526519	1.982157	2.036558
N 	0.817571	2.837816	-1.090736
N 	1.466977	2.172358	-1.957121
N 	2.116384	1.506900	-2.823507
H 	0.640688	4.486243	1.214479
H 	-0.405125	4.373798	2.609718
H 	0.864538	3.197050	2.372470
H 	-2.519739	3.197050	-0.164244
H 	-2.391265	4.373794	1.120990
H 	-1.345445	4.486238	-0.274247
H 	-2.201743	1.365670	1.480755
H 	-0.803606	1.365673	2.528741
H 	-2.073270	2.542421	2.765987
O 	2.080000	-0.000000	0.000000
H 	2.715106	-0.670272	-0.383895
H 	2.665511	0.670272	0.383895
O 	0.000000	-2.080000	0.000000
H 	-0.656466	-2.715106	-0.407053
H 	0.656466	-2.665511	0.407053
O 	-2.080000	0.000000	0.000000
H 	-2.715106	0.641860	-0.429715
H 	-2.665511	-0.641860	0.429715
O 	0.000000	0.000000	2.080000
H 	-0.717177	-0.286875	2.715106
H 	0.717177	0.286875	2.665511
O 	0.000000	-0.000000	-2.080000
H 	-0.565684	0.525968	-2.715106
H 	0.565684	-0.525968	-2.665511
