29
06/06/2024 02:00, XYZ structure generated by mol3D Class, molSimplify
Fe 	0.000000	0.000000	0.000000
B 	0.000000	2.100000	-0.000000
C 	-0.606291	1.262221	1.220876
O 	-0.590756	-0.008199	1.189594
N 	-1.181289	1.961957	2.378739
C 	-1.199258	3.431402	2.414923
N 	0.606291	1.362184	-1.220876
C 	1.104832	2.051073	-2.224780
H 	-1.567799	1.427873	3.157048
H 	-2.210357	3.774074	2.486716
H 	-0.645402	3.774072	3.263875
H 	-0.755092	3.815654	1.520514
H 	1.091753	3.120669	-2.198442
H 	1.523368	1.541742	-3.067578
O 	2.080000	0.000000	0.000000
H 	2.715106	-0.538976	-0.553303
H 	2.665511	0.538976	0.553303
O 	-0.000000	-2.080000	0.000000
H 	-0.519338	-2.715106	-0.571776
H 	0.519338	-2.665511	0.571776
O 	-2.080000	0.000000	0.000000
H 	-2.715106	0.499067	-0.589553
H 	-2.665511	-0.499067	0.589553
O 	0.000000	0.000000	2.080000
H 	-0.606611	0.478187	2.715106
H 	0.606611	-0.478187	2.665511
O 	0.000000	-0.000000	-2.080000
H 	0.771908	0.028239	-2.715106
H 	-0.771908	-0.028239	-2.665511
