23
06/06/2024 02:07, XYZ structure generated by mol3D Class, molSimplify
Fe 	0.000000	0.000000	0.000000
B 	0.000000	2.100000	0.000000
Cl 	1.476732	3.007593	-0.674639
S 	-1.476732	3.067587	0.674639
O 	-2.547243	2.089270	1.163699
O 	-1.020122	3.948504	1.839874
O 	-2.126897	4.051852	-0.563346
H 	-2.908237	4.563803	-0.206394
O 	2.080000	-0.000000	-0.000000
H 	2.715106	-0.747643	0.194089
H 	2.665511	0.747643	-0.194089
O 	0.000000	-2.080000	0.000000
H 	-0.753961	-2.715106	0.167878
H 	0.753961	-2.665511	-0.167878
O 	-2.080000	0.000000	0.000000
H 	-2.715106	0.672634	-0.379741
H 	-2.665511	-0.672634	0.379741
O 	0.000000	0.000000	2.080000
H 	-0.402984	0.658972	2.715106
H 	0.402984	-0.658972	2.665511
O 	0.000000	-0.000000	-2.080000
H 	0.425736	0.644506	-2.715106
H 	-0.425736	-0.644506	-2.665511
