25
06/05/2024 23:26, XYZ structure generated by mol3D Class, molSimplify
Fe 	0.000000	0.000000	0.000000
B 	0.000000	2.100000	0.000000
N 	-0.405694	2.912787	-1.255902
N 	0.681606	3.730972	-1.661800
O 	0.405694	2.812827	1.255902
C 	0.729278	1.859803	2.257619
N 	1.016622	1.013513	3.147148
H 	-0.649693	2.272229	-2.011249
H 	0.414634	4.265837	-2.488266
H 	0.925602	4.371528	-0.906450
O 	2.080000	0.000000	0.000000
H 	2.715106	-0.301230	0.711267
H 	2.665511	0.301230	-0.711267
O 	0.000000	-2.080000	0.000000
H 	-0.325870	-2.715106	0.700320
H 	0.325870	-2.665511	-0.700320
O 	-2.080000	0.000000	0.000000
H 	-2.715106	0.350112	0.688521
H 	-2.665511	-0.350112	-0.688521
O 	0.000000	0.000000	2.080000
H 	-0.545741	0.546632	2.715106
H 	0.545741	-0.546632	2.665511
O 	0.000000	-0.000000	-2.080000
H 	-0.463307	-0.618050	-2.715106
H 	0.463307	0.618050	-2.665511
