31
06/06/2024 00:02, XYZ structure generated by mol3D Class, molSimplify
Fe 	0.000000	0.000000	0.000000
B 	0.000000	2.100000	-0.000000
C 	-1.383369	2.900000	0.079315
O 	-1.383369	4.170900	0.079315
N 	-2.654339	2.165000	0.152187
C 	-2.654339	0.695000	0.152187
C 	1.383369	2.900000	-0.079315
O 	2.482196	2.264550	-0.142317
C 	1.383369	4.420000	-0.079315
H 	-3.536236	2.675000	0.202750
H 	-3.107907	0.338331	1.053276
H 	-3.207923	0.338332	-0.691160
H 	-1.647186	0.338337	0.094441
H 	0.829783	4.776669	-0.922660
H 	0.929802	4.776668	0.821776
H 	2.390522	4.776663	-0.137061
O 	2.080000	0.000000	0.000000
H 	2.715106	0.362402	0.682133
H 	2.665511	-0.362402	-0.682133
O 	-0.000000	-2.080000	0.000000
H 	0.338375	-2.715106	0.694365
H 	-0.338375	-2.665511	-0.694365
O 	-2.080000	0.000000	0.000000
H 	-2.715106	-0.212659	0.742574
H 	-2.665511	0.212659	-0.742574
O 	0.000000	0.000000	2.080000
H 	0.749543	-0.186614	2.715106
H 	-0.749543	0.186614	2.665511
O 	0.000000	0.000000	-2.080000
H 	-0.705758	-0.313920	-2.715106
H 	0.705758	0.313920	-2.665511
