25
06/06/2024 00:55, XYZ structure generated by mol3D Class, molSimplify
Fe 	0.000000	0.000000	0.000000
B 	0.000000	2.100000	0.000000
N 	0.552752	2.837816	-1.246030
O 	1.613454	3.623158	-0.878537
C 	-0.552752	2.937779	1.246030
F 	-0.972154	2.101616	2.191458
F 	0.419862	3.704062	1.731551
F 	-1.565439	3.704063	0.850843
H 	0.859624	2.153931	-1.937789
H 	1.312595	4.293632	-0.200343
O 	2.080000	0.000000	0.000000
H 	2.715106	0.512839	0.577612
H 	2.665511	-0.512839	-0.577612
O 	-0.000000	-2.080000	0.000000
H 	0.492369	-2.715106	0.595158
H 	-0.492369	-2.665511	-0.595158
O 	-2.080000	0.000000	0.000000
H 	-2.715106	-0.471298	0.611979
H 	-2.665511	0.471298	-0.611979
O 	0.000000	0.000000	2.080000
H 	0.768737	-0.075384	2.715106
H 	-0.768737	0.075384	2.665511
O 	0.000000	0.000000	-2.080000
H 	-0.749721	-0.185899	-2.715106
H 	0.749721	0.185899	-2.665511
