25
06/05/2024 22:40, XYZ structure generated by mol3D Class, molSimplify
Fe 	0.000000	0.000000	0.000000
B 	0.000000	2.100000	0.000000
C 	-1.354991	2.937779	-0.148753
F 	-1.522614	3.704066	0.925308
F 	-1.285606	3.704063	-1.233601
F 	-2.383087	2.101610	-0.261619
N 	1.354991	2.837816	0.148753
C 	2.469174	2.148927	0.271070
H 	2.439943	1.079331	0.267861
H 	3.404554	2.658258	0.373757
O 	2.080000	-0.000000	-0.000000
H 	2.715106	-0.042990	-0.771227
H 	2.665511	0.042990	0.771227
O 	0.000000	-2.080000	0.000000
H 	-0.016048	-2.715106	-0.772258
H 	0.016048	-2.665511	0.772258
O 	-2.080000	0.000000	0.000000
H 	-2.715106	-0.010913	-0.772348
H 	-2.665511	0.010913	0.772348
O 	0.000000	0.000000	2.080000
H 	-0.771496	-0.037861	2.715106
H 	0.771496	0.037861	2.665511
O 	0.000000	-0.000000	-2.080000
H 	0.772414	-0.003988	-2.715106
H 	-0.772414	0.003988	-2.665511
