28
06/05/2024 23:12, XYZ structure generated by mol3D Class, molSimplify
Fe 	0.000000	0.000000	0.000000
B 	0.000000	2.100000	0.000000
N 	0.172985	2.912787	-1.308416
C 	1.369940	3.759782	-1.204489
O 	-0.172985	2.812827	1.308416
C 	-0.310960	1.859803	2.352019
F 	-1.375455	1.097471	2.118351
F 	0.777688	1.097474	2.403018
F 	-0.464340	2.491843	3.512148
H 	0.277025	2.272229	-2.095348
H 	2.230918	3.143264	-1.051119
H 	1.489357	4.320865	-2.107720
H 	1.260795	4.431737	-0.378982
O 	2.080000	0.000000	0.000000
H 	2.715106	-0.015998	-0.772259
H 	2.665511	0.015998	0.772259
O 	-0.000000	-2.080000	0.000000
H 	0.010963	-2.715106	-0.772347
H 	-0.010963	-2.665511	0.772347
O 	-2.080000	0.000000	0.000000
H 	-2.715106	-0.037911	-0.771494
H 	-2.665511	0.037911	0.771494
O 	0.000000	0.000000	2.080000
H 	-0.757749	0.149856	2.715106
H 	0.757749	-0.149856	2.665511
O 	0.000000	-0.000000	-2.080000
H 	0.754240	0.166618	-2.715106
H 	-0.754240	-0.166618	-2.665511
