28
06/05/2024 23:58, XYZ structure generated by mol3D Class, molSimplify
Fe 	0.000000	0.000000	0.000000
B 	0.000000	2.100000	0.000000
S 	1.463304	3.268533	0.255681
O 	1.633963	4.150990	-0.983036
O 	1.203796	4.150987	1.478877
O 	2.886517	2.353806	0.504358
C 	-1.463304	2.694448	-0.255681
O 	-2.447279	1.908687	-0.427610
C 	-1.676606	4.198946	-0.292951
H 	3.660752	2.972077	0.639639
H 	-1.385222	4.623832	0.644848
H 	-1.084476	4.623831	-1.076377
H 	-2.710273	4.408260	-0.473563
O 	2.080000	0.000000	0.000000
H 	2.715106	0.271495	0.723139
H 	2.665511	-0.271495	-0.723139
O 	-0.000000	-2.080000	0.000000
H 	0.246092	-2.715106	0.732174
H 	-0.246092	-2.665511	-0.732174
O 	-2.080000	0.000000	0.000000
H 	-2.715106	0.046104	0.771047
H 	-2.665511	-0.046104	-0.771047
O 	0.000000	0.000000	2.080000
H 	0.768969	0.072985	2.715106
H 	-0.768969	-0.072985	2.665511
O 	0.000000	0.000000	-2.080000
H 	0.099777	0.765953	-2.715106
H 	-0.099777	-0.765953	-2.665511
