27
06/05/2024 23:34, XYZ structure generated by mol3D Class, molSimplify
Fe 	0.000000	0.000000	0.000000
B 	0.000000	2.100000	0.000000
N 	-1.453300	2.637386	-0.040445
C 	-2.464958	1.796737	-0.068599
S 	-3.710605	0.761653	-0.103264
S 	1.453300	3.307636	0.040445
O 	2.767191	2.523652	0.077009
O 	1.419533	4.188577	-1.210587
C 	1.331131	4.349488	1.515476
F 	0.189327	5.030790	1.483700
F 	1.360475	3.583927	2.602654
F 	2.353824	5.199306	1.543937
O 	2.080000	-0.000000	-0.000000
H 	2.715106	0.509127	-0.580887
H 	2.665511	-0.509127	0.580887
O 	-0.000000	-2.080000	0.000000
H 	0.529089	-2.715106	-0.562765
H 	-0.529089	-2.665511	0.562765
O 	-2.080000	0.000000	0.000000
H 	-2.715106	0.070456	0.769205
H 	-2.665511	-0.070456	-0.769205
O 	0.000000	0.000000	2.080000
H 	0.766277	0.097258	2.715106
H 	-0.766277	-0.097258	2.665511
O 	0.000000	0.000000	-2.080000
H 	0.123941	0.762416	-2.715106
H 	-0.123941	-0.762416	-2.665511
