29
06/06/2024 00:27, XYZ structure generated by mol3D Class, molSimplify
Fe 	0.000000	0.000000	0.000000
B 	0.000000	2.100000	0.000000
N 	-1.294982	2.837816	0.425616
C 	-1.333361	4.307261	0.438230
O 	-2.395163	4.912223	0.787207
C 	-0.103129	5.103151	0.033895
C 	1.294982	2.937779	-0.425616
F 	2.277552	2.101616	-0.748553
F 	1.002859	3.704062	-1.472694
F 	1.680987	3.704063	0.590607
H 	-2.120533	2.303733	0.696946
H 	0.709237	4.860176	0.686525
H 	0.163668	4.860177	-0.973420
H 	-0.316273	6.149364	0.103948
O 	2.080000	0.000000	0.000000
H 	2.715106	0.525226	0.566372
H 	2.665511	-0.525226	-0.566372
O 	0.000000	-2.080000	0.000000
H 	0.505140	-2.715106	0.584357
H 	-0.505140	-2.665511	-0.584357
O 	-2.080000	0.000000	0.000000
H 	-2.715106	-0.484439	0.601630
H 	-2.665511	0.484439	-0.601630
O 	0.000000	0.000000	2.080000
H 	0.618171	-0.463147	2.715106
H 	-0.618171	0.463147	2.665511
O 	0.000000	-0.000000	-2.080000
H 	-0.633958	-0.441291	-2.715106
H 	0.633958	0.441291	-2.665511
