24
06/06/2024 00:02, XYZ structure generated by mol3D Class, molSimplify
Fe 	0.000000	0.000000	0.000000
B 	0.000000	2.100000	0.000000
N 	1.338497	2.875000	0.101487
N 	-1.338497	2.875000	-0.101487
O 	-2.376827	1.984734	-0.180214
H 	1.329411	3.461413	0.936015
H 	2.111557	2.212171	0.160101
H 	-1.455337	3.461412	0.724873
H 	-2.262274	1.409823	-0.990372
O 	2.080000	0.000000	0.000000
H 	2.715106	-0.269268	-0.723971
H 	2.665511	0.269268	0.723971
O 	-0.000000	-2.080000	0.000000
H 	-0.243838	-2.715106	-0.732928
H 	0.243838	-2.665511	0.732928
O 	-2.080000	0.000000	0.000000
H 	-2.715106	-0.259088	-0.727676
H 	-2.665511	0.259088	0.727676
O 	0.000000	0.000000	2.080000
H 	-0.718191	-0.284326	2.715106
H 	0.718191	0.284326	2.665511
O 	0.000000	-0.000000	-2.080000
H 	0.707831	-0.309217	-2.715106
H 	-0.707831	0.309217	-2.665511
