29
06/06/2024 02:08, XYZ structure generated by mol3D Class, molSimplify
Fe 	0.000000	0.000000	0.000000
B 	0.000000	2.100000	-0.000000
N 	-1.313015	2.875000	0.279048
C 	-1.313015	4.345000	0.279048
O 	-2.389602	4.980450	0.507849
C 	-0.025413	5.105000	0.005401
N 	1.313015	2.875000	-0.279048
C 	2.427510	2.217175	-0.515906
H 	-2.177063	2.365000	0.462679
H 	0.705031	4.846508	0.743325
H 	0.341797	4.846509	-0.965804
H 	-0.216666	6.156984	0.046047
H 	2.427510	1.147175	-0.515906
H 	3.333913	2.752175	-0.708539
O 	2.080000	-0.000000	0.000000
H 	2.715106	-0.494206	-0.593633
H 	2.665511	0.494206	0.593633
O 	0.000000	-2.080000	0.000000
H 	-0.473187	-2.715106	-0.610519
H 	0.473187	-2.665511	0.610519
O 	-2.080000	0.000000	0.000000
H 	-2.715106	0.451592	-0.626661
H 	-2.665511	-0.451592	0.626661
O 	0.000000	0.000000	2.080000
H 	-0.642040	0.429447	2.715106
H 	0.642040	-0.429447	2.665511
O 	0.000000	-0.000000	-2.080000
H 	0.656636	0.406778	-2.715106
H 	-0.656636	-0.406778	-2.665511
