22
06/05/2024 22:42, XYZ structure generated by mol3D Class, molSimplify
Fe 	0.000000	0.000000	0.000000
B 	0.000000	2.100000	0.000000
N 	1.305289	2.912787	0.195189
O 	-1.305289	2.812827	-0.195189
H 	1.219076	3.500498	1.024384
H 	2.090339	2.272229	0.312584
H 	-2.038463	2.141683	-0.304826
O 	2.080000	0.000000	0.000000
H 	2.715106	-0.306710	-0.708921
H 	2.665511	0.306710	0.708921
O 	0.000000	-2.080000	0.000000
H 	-0.281782	-2.715106	-0.719193
H 	0.281782	-2.665511	0.719193
O 	-2.080000	0.000000	0.000000
H 	-2.715106	0.205062	-0.744708
H 	-2.665511	-0.205062	0.744708
O 	0.000000	0.000000	2.080000
H 	-0.751411	0.178947	2.715106
H 	0.751411	-0.178947	2.665511
O 	0.000000	-0.000000	-2.080000
H 	0.152614	-0.757198	-2.715106
H 	-0.152614	0.757198	-2.665511
