23
06/05/2024 23:15, XYZ structure generated by mol3D Class, molSimplify
Fe 	0.000000	0.000000	0.000000
B 	0.000000	2.100000	0.000000
F 	0.698663	2.485323	1.162538
S 	-0.698663	3.416235	-1.162538
O 	-1.404876	2.736027	-2.337638
O 	-1.699500	4.289258	-0.401991
O 	0.576532	4.391679	-1.751170
H 	0.206868	5.088099	-2.366270
O 	2.080000	-0.000000	0.000000
H 	2.715106	0.592513	0.495549
H 	2.665511	-0.592513	-0.495549
O 	-0.000000	-2.080000	0.000000
H 	0.574857	-2.715106	0.515925
H 	-0.574857	-2.665511	-0.515925
O 	-2.080000	0.000000	0.000000
H 	-2.715106	-0.556502	0.535673
H 	-2.665511	0.556502	-0.535673
O 	0.000000	0.000000	2.080000
H 	0.554769	-0.537468	2.715106
H 	-0.554769	0.537468	2.665511
O 	0.000000	-0.000000	-2.080000
H 	-0.573188	-0.517779	-2.715106
H 	0.573188	0.517779	-2.665511
