29
06/06/2024 01:14, XYZ structure generated by mol3D Class, molSimplify
Fe 	0.000000	0.000000	0.000000
B 	0.000000	2.100000	0.000000
C 	-0.530270	2.900000	-1.280162
O 	-0.530270	4.170900	-1.280162
N 	-1.017456	2.165000	-2.456310
C 	0.530270	2.900000	1.280162
O 	0.951470	2.264550	2.297010
O 	0.530270	4.320000	1.280162
C 	1.000885	5.030000	2.416305
H 	-1.017456	1.145000	-2.456310
H 	-1.355503	2.675000	-3.272413
H 	0.408462	4.771508	3.269016
H 	2.022752	4.771509	2.600341
H 	0.926060	6.081984	2.235664
O 	2.080000	-0.000000	0.000000
H 	2.715106	0.753743	0.168853
H 	2.665511	-0.753743	-0.168853
O 	-0.000000	-2.080000	0.000000
H 	0.747391	-2.715106	0.195056
H 	-0.747391	-2.665511	-0.195056
O 	-2.080000	0.000000	0.000000
H 	-2.715106	-0.740128	0.221021
H 	-2.665511	0.740128	-0.221021
O 	0.000000	0.000000	2.080000
H 	0.370072	-0.678002	2.715106
H 	-0.370072	0.678002	2.665511
O 	0.000000	-0.000000	-2.080000
H 	-0.460830	-0.619899	-2.715106
H 	0.460830	0.619899	-2.665511
