23
06/05/2024 22:48, XYZ structure generated by mol3D Class, molSimplify
Fe 	0.000000	0.000000	0.000000
B 	0.000000	2.100000	0.000000
C 	-1.185187	2.937779	0.673394
O 	-1.154819	4.208199	0.656140
Cl 	-2.546240	2.090480	1.446711
N 	1.185187	2.837816	-0.673394
O 	2.200003	2.120468	-1.249987
O 	1.214485	4.063503	-0.690041
O 	2.080000	0.000000	0.000000
H 	2.715106	-0.732514	-0.245077
H 	2.665511	0.732514	0.245077
O 	-0.000000	-2.080000	0.000000
H 	-0.723515	-2.715106	-0.270492
H 	0.723515	-2.665511	0.270492
O 	-2.080000	0.000000	0.000000
H 	-2.715106	0.713634	-0.295577
H 	-2.665511	-0.713634	0.295577
O 	0.000000	0.000000	2.080000
H 	-0.320303	0.702884	2.715106
H 	0.320303	-0.702884	2.665511
O 	0.000000	0.000000	-2.080000
H 	0.642646	0.428539	-2.715106
H 	-0.642646	-0.428539	-2.665511
