26
06/05/2024 22:59, XYZ structure generated by mol3D Class, molSimplify
Fe 	0.000000	0.000000	0.000000
B 	0.000000	2.100000	0.000000
O 	-1.295438	2.776364	-0.338188
C 	-2.288314	1.794829	-0.597390
C 	1.295438	2.976053	0.338188
Cl 	2.664905	1.896635	0.695703
Cl 	1.698409	4.003067	-1.058685
Cl 	0.964173	4.003068	1.753782
H 	-1.979671	1.183788	-1.419745
H 	-2.421031	1.183790	0.270895
H 	-3.212393	2.277302	-0.838631
O 	2.080000	-0.000000	-0.000000
H 	2.715106	-0.203853	0.745040
H 	2.665511	0.203853	-0.745040
O 	0.000000	-2.080000	0.000000
H 	-0.229730	-2.715106	0.737471
H 	0.229730	-2.665511	-0.737471
O 	-2.080000	0.000000	0.000000
H 	-2.715106	0.370909	-0.677545
H 	-2.665511	-0.370909	0.677545
O 	0.000000	0.000000	2.080000
H 	-0.690076	0.347037	2.715106
H 	0.690076	-0.347037	2.665511
O 	0.000000	0.000000	-2.080000
H 	0.701767	0.322742	-2.715106
H 	-0.701767	-0.322742	-2.665511
