26
06/06/2024 02:41, XYZ structure generated by mol3D Class, molSimplify
Fe 	0.000000	0.000000	0.000000
B 	0.000000	2.100000	0.000000
S 	1.483798	3.268533	0.070538
O 	1.498089	4.150990	-1.179799
O 	1.379414	4.150987	1.316594
O 	2.926943	2.353806	0.139143
C 	-1.483798	2.694448	-0.070538
O 	-2.481554	1.908687	-0.117970
O 	-1.685857	4.099965	-0.080143
H 	3.712022	2.972077	0.176464
H 	-2.613231	4.471495	-0.124229
O 	2.080000	0.000000	0.000000
H 	2.715106	-0.311328	-0.706905
H 	2.665511	0.311328	0.706905
O 	0.000000	-2.080000	0.000000
H 	-0.286467	-2.715106	-0.717340
H 	0.286467	-2.665511	0.717340
O 	-2.080000	0.000000	0.000000
H 	-2.715106	0.077644	-0.768512
H 	-2.665511	-0.077644	0.768512
O 	0.000000	0.000000	2.080000
H 	-0.770754	0.050776	2.715106
H 	0.770754	-0.050776	2.665511
O 	0.000000	0.000000	-2.080000
H 	0.769739	0.064355	-2.715106
H 	-0.769739	-0.064355	-2.665511
