33
06/06/2024 02:55, XYZ structure generated by mol3D Class, molSimplify
Fe 	0.000000	0.000000	0.000000
B 	0.000000	2.100000	0.000000
N 	-0.293418	2.875000	1.309878
C 	-0.293418	4.345000	1.309878
C 	0.258230	4.964927	2.418905
C 	-0.134429	6.315252	2.575405
C 	-0.662267	7.057395	1.619044
C 	-1.127532	6.391414	0.519295
C 	-0.897087	5.046545	0.357692
N 	0.293418	2.875000	-1.309878
O 	0.552761	2.190000	-2.467642
O 	0.293418	4.101150	-1.309878
H 	-0.486505	2.365000	2.171863
H 	0.921164	4.467783	3.095858
H 	0.006078	6.766463	3.535388
H 	-0.722588	8.122589	1.700431
H 	-1.679031	6.925223	-0.226223
H 	-1.206875	4.560130	-0.543602
O 	2.080000	0.000000	0.000000
H 	2.715106	0.769454	0.067682
H 	2.665511	-0.769454	-0.067682
O 	-0.000000	-2.080000	0.000000
H 	0.766623	-2.715106	0.094494
H 	-0.766623	-2.665511	-0.094494
O 	-2.080000	0.000000	0.000000
H 	-2.715106	-0.762858	0.121191
H 	-2.665511	0.762858	-0.121191
O 	0.000000	0.000000	2.080000
H 	0.688400	-0.350351	2.715106
H 	-0.688400	0.350351	2.665511
O 	0.000000	0.000000	-2.080000
H 	-0.761962	-0.126702	-2.715106
H 	0.761962	0.126702	-2.665511
