32
06/06/2024 03:24, XYZ structure generated by mol3D Class, molSimplify
Fe 	0.000000	0.000000	0.000000
B 	0.000000	2.100000	0.000000
N 	1.291815	2.912787	-0.270352
C 	1.250977	4.382195	-0.261806
O 	2.310182	5.048628	-0.483477
C 	-0.058062	5.104527	0.012151
O 	-1.291815	2.812827	0.270352
C 	-2.475285	2.068210	0.518030
O 	-2.439978	0.797822	0.510641
C 	-3.784324	2.790541	0.791987
H 	2.170250	2.428064	-0.454192
H 	-0.778809	4.830213	-0.729587
H 	-0.420885	4.830214	0.980662
H 	0.104014	6.161636	-0.021768
H 	-3.677911	3.403846	1.662294
H 	-4.035833	3.403844	-0.047955
H 	-4.560723	2.072417	0.954473
O 	2.080000	0.000000	0.000000
H 	2.715106	-0.232507	0.736600
H 	2.665511	0.232507	-0.736600
O 	-0.000000	-2.080000	0.000000
H 	-0.258073	-2.715106	0.728037
H 	0.258073	-2.665511	-0.728037
O 	-2.080000	0.000000	0.000000
H 	-2.715106	0.612656	-0.470418
H 	-2.665511	-0.612656	0.470418
O 	0.000000	0.000000	2.080000
H 	-0.491512	0.595865	2.715106
H 	0.491512	-0.595865	2.665511
O 	0.000000	0.000000	-2.080000
H 	0.578349	-0.512008	-2.715106
H 	-0.578349	0.512008	-2.665511
