31
06/06/2024 02:55, XYZ structure generated by mol3D Class, molSimplify
Fe 	0.000000	0.000000	0.000000
B 	0.000000	2.100000	0.000000
N 	-0.406413	2.637386	1.395903
C 	-0.475750	4.086308	1.634057
O 	-0.808982	4.526930	2.778607
C 	-0.148900	5.057528	0.511426
S 	0.406413	3.307636	-1.395903
O 	0.773840	2.523652	-2.657903
O 	-0.812542	4.188577	-1.679396
N 	1.764117	4.320708	-0.918490
H 	-0.625746	1.985646	2.149247
H 	0.856711	4.897418	0.182774
H 	-0.820933	4.897419	-0.305664
H 	-0.252394	6.061436	0.866895
H 	2.576515	3.733586	-0.729551
H 	1.983451	4.972447	-1.671835
O 	2.080000	0.000000	0.000000
H 	2.715106	-0.770060	0.060392
H 	2.665511	0.770060	-0.060392
O 	-0.000000	-2.080000	0.000000
H 	-0.771699	-2.715106	0.033480
H 	0.771699	-2.665511	-0.033480
O 	-2.080000	0.000000	0.000000
H 	-2.715106	0.772397	0.006528
H 	-2.665511	-0.772397	-0.006528
O 	0.000000	0.000000	2.080000
H 	-0.772154	-0.020432	2.715106
H 	0.772154	0.020432	2.665511
O 	0.000000	-0.000000	-2.080000
H 	-0.760590	0.134694	-2.715106
H 	0.760590	-0.134694	-2.665511
