28
06/06/2024 02:07, XYZ structure generated by mol3D Class, molSimplify
Fe 	0.000000	0.000000	0.000000
B 	0.000000	2.100000	0.000000
N 	-0.847498	2.837816	-1.067649
C 	-0.872615	4.307261	-1.099291
O 	-1.567508	4.912223	-1.974695
C 	-0.067492	5.103151	-0.085024
C 	0.847498	2.937779	1.067649
C 	1.538132	3.620493	1.937687
H 	-1.387777	2.303733	-1.748275
H 	-0.398635	4.860176	0.903008
H 	0.969907	4.860177	-0.183341
H 	-0.206984	6.149364	-0.260752
H 	2.104896	4.180757	2.651677
O 	2.080000	0.000000	-0.000000
H 	2.715106	0.061382	0.769982
H 	2.665511	-0.061382	-0.769982
O 	-0.000000	-2.080000	0.000000
H 	0.034472	-2.715106	0.771655
H 	-0.034472	-2.665511	-0.771655
O 	-2.080000	0.000000	0.000000
H 	-2.715106	-0.007521	0.772388
H 	-2.665511	0.007521	-0.772388
O 	0.000000	0.000000	2.080000
H 	0.772180	0.019440	2.715106
H 	-0.772180	-0.019440	2.665511
O 	0.000000	0.000000	-2.080000
H 	-0.772403	0.005825	-2.715106
H 	0.772403	-0.005825	-2.665511
