28
06/06/2024 01:41, XYZ structure generated by mol3D Class, molSimplify
Fe 	0.000000	0.000000	0.000000
B 	0.000000	2.100000	0.000000
N 	-0.752269	2.875000	1.111740
C 	-0.752269	4.345000	1.111740
O 	-1.369081	4.980450	2.023296
C 	-0.014560	5.105000	0.021518
N 	0.752269	2.875000	-1.111740
O 	1.417178	2.190000	-2.094375
O 	0.752269	4.101150	-1.111740
H 	-1.247310	2.365000	1.843337
H 	1.023448	4.846508	0.046427
H 	-0.423687	4.846509	-0.932787
H 	-0.124135	6.156984	0.183453
O 	2.080000	0.000000	0.000000
H 	2.715106	-0.560853	0.531116
H 	2.665511	0.560853	-0.531116
O 	-0.000000	-2.080000	0.000000
H 	-0.579047	-2.715106	0.511219
H 	0.579047	-2.665511	-0.511219
O 	-2.080000	0.000000	0.000000
H 	-2.715106	0.596535	0.490699
H 	-2.665511	-0.596535	-0.490699
O 	0.000000	0.000000	2.080000
H 	0.469581	0.613297	2.715106
H 	-0.469581	-0.613297	2.665511
O 	0.000000	-0.000000	-2.080000
H 	-0.447891	0.629312	-2.715106
H 	0.447891	-0.629312	-2.665511
