30
06/06/2024 01:09, XYZ structure generated by mol3D Class, molSimplify
Fe 	0.000000	0.000000	0.000000
B 	0.000000	2.100000	0.000000
C 	-0.437986	2.976053	-1.265188
C 	-0.413159	4.334335	-1.193473
O 	0.437986	2.776364	1.265188
S 	0.842232	1.594374	2.432914
O 	-0.381155	0.720386	2.718825
O 	1.980545	0.720389	1.901246
C 	1.370735	2.410521	3.959573
H 	-0.750416	2.493580	-2.167688
H 	-0.706062	4.920195	-2.039567
H 	-0.100729	4.816808	-0.290972
H 	2.226055	3.021562	3.759681
H 	0.574894	3.021560	4.331284
H 	1.623684	1.670913	4.690256
O 	2.080000	0.000000	-0.000000
H 	2.715106	-0.653638	0.411579
H 	2.665511	0.653638	-0.411579
O 	-0.000000	-2.080000	0.000000
H 	-0.667604	-2.715106	0.388516
H 	0.667604	-2.665511	-0.388516
O 	-2.080000	0.000000	0.000000
H 	-2.715106	0.680756	0.364981
H 	-2.665511	-0.680756	-0.364981
O 	0.000000	0.000000	2.080000
H 	-0.726748	-0.261681	2.715106
H 	0.726748	0.261681	2.665511
O 	0.000000	0.000000	-2.080000
H 	0.650011	-0.417283	-2.715106
H 	-0.650011	0.417283	-2.665511
