30
06/05/2024 22:53, XYZ structure generated by mol3D Class, molSimplify
Fe 	0.000000	0.000000	0.000000
B 	0.000000	2.100000	0.000000
C 	0.197474	2.900000	1.371497
O 	0.197474	4.170900	1.371497
O 	0.372732	2.190000	2.588701
C 	0.547990	2.900000	3.805904
C 	-0.197474	2.900000	-1.371497
O 	-0.354330	2.264550	-2.460894
C 	-0.197474	4.420000	-1.371497
H 	1.420800	3.515161	3.737500
H 	-0.308666	3.515159	3.986516
H 	0.663895	2.204679	4.610885
H 	-0.990321	4.776669	-0.747734
H 	0.739144	4.776668	-0.996751
H 	-0.341244	4.776663	-2.370007
O 	2.080000	0.000000	0.000000
H 	2.715106	-0.578095	0.512295
H 	2.665511	0.578095	-0.512295
O 	0.000000	-2.080000	0.000000
H 	-0.595622	-2.715106	0.491808
H 	0.595622	-2.665511	-0.491808
O 	-2.080000	0.000000	0.000000
H 	-2.715106	0.612423	0.470721
H 	-2.665511	-0.612423	-0.470721
O 	0.000000	0.000000	2.080000
H 	-0.671974	0.380907	2.715106
H 	0.671974	-0.380907	2.665511
O 	0.000000	-0.000000	-2.080000
H 	0.630195	0.446647	-2.715106
H 	-0.630195	-0.446647	-2.665511
