24
06/06/2024 03:26, XYZ structure generated by mol3D Class, molSimplify
Fe 	0.000000	0.000000	0.000000
B 	0.000000	2.100000	0.000000
N 	-1.213827	2.875000	-0.573149
C 	-2.244131	2.217175	-1.059641
S 	-3.512737	1.407200	-1.658655
N 	1.213827	2.875000	0.573149
C 	2.244131	2.217175	1.059641
H 	2.244131	1.147175	1.059641
H 	3.082063	2.752175	1.455298
O 	2.080000	0.000000	0.000000
H 	2.715106	-0.357428	0.684752
H 	2.665511	0.357428	-0.684752
O 	-0.000000	-2.080000	0.000000
H 	-0.381108	-2.715106	0.671861
H 	0.381108	-2.665511	-0.671861
O 	-2.080000	0.000000	0.000000
H 	-2.715106	0.404323	0.658151
H 	-2.665511	-0.404323	-0.658151
O 	0.000000	0.000000	2.080000
H 	0.643639	0.427046	2.715106
H 	-0.643639	-0.427046	2.665511
O 	0.000000	0.000000	-2.080000
H 	-0.764367	-0.111277	-2.715106
H 	0.764367	0.111277	-2.665511
