30
06/05/2024 22:37, XYZ structure generated by mol3D Class, molSimplify
Fe 	0.000000	0.000000	0.000000
B 	0.000000	2.100000	0.000000
N 	1.328964	2.637386	-0.589551
C 	2.016187	3.457253	0.418637
S 	-1.328964	3.307636	0.589551
O 	-2.530447	2.523652	1.122548
O 	-0.759574	4.188577	1.704008
C 	-1.854124	4.349488	-0.794230
F 	-0.810005	5.030790	-1.257419
F 	-2.348939	3.583927	-1.762722
F 	-2.789321	5.199306	-0.379361
H 	1.925244	1.853243	-0.854070
H 	2.224508	2.860481	1.281983
H 	2.933603	3.828220	0.011658
H 	1.390675	4.279833	0.696120
O 	2.080000	0.000000	0.000000
H 	2.715106	0.559969	0.532048
H 	2.665511	-0.559969	-0.532048
O 	-0.000000	-2.080000	0.000000
H 	0.541059	-2.715106	0.551266
H 	-0.541059	-2.665511	-0.551266
O 	-2.080000	0.000000	0.000000
H 	-2.715106	-0.521491	0.569813
H 	-2.665511	0.521491	-0.569813
O 	0.000000	0.000000	2.080000
H 	0.587666	-0.501287	2.715106
H 	-0.587666	0.501287	2.665511
O 	0.000000	-0.000000	-2.080000
H 	-0.298893	0.712252	-2.715106
H 	0.298893	-0.712252	-2.665511
