23
06/06/2024 02:06, XYZ structure generated by mol3D Class, molSimplify
Fe 	0.000000	0.000000	0.000000
B 	0.000000	2.100000	0.000000
C 	-0.441059	2.694448	-1.418485
C 	-0.800483	3.178869	-2.574422
S 	0.441059	3.268533	1.418485
C 	0.895121	2.300314	2.878786
N 	1.211450	1.625788	3.896129
H 	-1.095441	3.576406	-3.523033
O 	2.080000	0.000000	-0.000000
H 	2.715106	-0.490337	-0.596833
H 	2.665511	0.490337	0.596833
O 	-0.000000	-2.080000	0.000000
H 	-0.469209	-2.715106	-0.613582
H 	0.469209	-2.665511	0.613582
O 	-2.080000	0.000000	0.000000
H 	-2.715106	0.447510	-0.629583
H 	-2.665511	-0.447510	0.629583
O 	0.000000	0.000000	2.080000
H 	-0.644817	0.425265	2.715106
H 	0.644817	-0.425265	2.665511
O 	0.000000	-0.000000	-2.080000
H 	0.561186	0.530764	-2.715106
H 	-0.561186	-0.530764	-2.665511
