35
06/05/2024 23:07, XYZ structure generated by mol3D Class, molSimplify
Fe 	0.000000	0.000000	0.000000
B 	0.000000	2.100000	0.000000
C 	0.077255	2.976053	-1.336624
C 	-0.755070	2.772570	-2.424923
C 	-0.412070	3.543167	-3.560960
C 	0.364118	4.611282	-3.534908
C 	1.110557	4.793141	-2.403889
C 	0.924907	3.997485	-1.299190
O 	-0.077255	2.776364	1.336624
C 	-0.145819	1.998867	2.522877
O 	-0.141728	0.729946	2.452097
C 	-0.224103	2.684250	3.877322
F 	0.853505	3.443768	4.052797
F 	-1.314755	3.443766	3.927474
F 	-0.279562	1.764924	4.836835
H 	-1.582363	2.094187	-2.408067
H 	-0.809196	3.239358	-4.506947
H 	0.406579	5.297475	-4.354809
H 	1.849917	5.566196	-2.378695
H 	1.468300	4.202807	-0.400598
O 	2.080000	-0.000000	0.000000
H 	2.715106	-0.709752	0.304782
H 	2.665511	0.709752	-0.304782
O 	-0.000000	-2.080000	0.000000
H 	-0.719956	-2.715106	0.279826
H 	0.719956	-2.665511	-0.279826
O 	-2.080000	0.000000	0.000000
H 	-2.715106	0.729284	0.254530
H 	-2.665511	-0.729284	-0.254530
O 	0.000000	0.000000	2.080000
H 	-0.745262	0.203037	2.715106
H 	0.745262	-0.203037	2.665511
O 	0.000000	-0.000000	-2.080000
H 	0.006488	0.772397	-2.715106
H 	-0.006488	-0.772397	-2.665511
