34
06/06/2024 01:27, XYZ structure generated by mol3D Class, molSimplify
Fe 	0.000000	0.000000	0.000000
B 	0.000000	2.100000	-0.000000
O 	-1.362500	1.618319	-0.401966
C 	-2.386178	2.554950	-0.703972
C 	-3.657461	2.361617	-0.189165
C 	-4.647545	3.178149	-0.785034
C 	-4.396390	4.267642	-1.487845
C 	-3.106625	4.435430	-1.909513
C 	-2.106589	3.599580	-1.474568
S 	1.362500	0.853358	0.401966
O 	2.643121	1.601386	0.779775
O 	0.920250	-0.025399	1.574347
O 	1.658509	-0.128492	-0.966409
H 	-3.871394	1.658577	0.588568
H 	-5.670928	2.893057	-0.657320
H 	-5.161103	4.980720	-1.715074
H 	-2.872691	5.229070	-2.587974
H 	-1.093335	3.792177	-1.759388
H 	2.379409	-0.788091	-0.753728
O 	2.080000	-0.000000	0.000000
H 	2.715106	0.224388	-0.739114
H 	2.665511	-0.224388	0.739114
O 	-0.000000	-2.080000	0.000000
H 	0.250046	-2.715106	-0.730833
H 	-0.250046	-2.665511	0.730833
O 	-2.080000	0.000000	0.000000
H 	-2.715106	-0.275400	-0.721661
H 	-2.665511	0.275400	0.721661
O 	0.000000	0.000000	2.080000
H 	-0.711610	-0.300417	2.715106
H 	0.711610	0.300417	2.665511
O 	0.000000	0.000000	-2.080000
H 	0.541963	-0.550378	-2.715106
H 	-0.541963	0.550378	-2.665511
