24
06/06/2024 02:08, XYZ structure generated by mol3D Class, molSimplify
Fe 	0.000000	0.000000	0.000000
B 	0.000000	2.100000	0.000000
N 	0.244095	2.875000	1.319959
O 	-0.842659	3.662633	1.594733
N 	-0.244095	2.875000	-1.319959
O 	-0.459843	2.190000	-2.486633
O 	-0.244095	4.101150	-1.319959
H 	0.385073	2.212171	2.082312
H 	-0.980870	4.312464	0.847326
O 	2.080000	0.000000	0.000000
H 	2.715106	-0.767225	-0.089476
H 	2.665511	0.767225	0.089476
O 	-0.000000	-2.080000	0.000000
H 	-0.763635	-2.715106	-0.116197
H 	0.763635	-2.665511	0.116197
O 	-2.080000	0.000000	0.000000
H 	-2.715106	0.759114	-0.142777
H 	-2.665511	-0.759114	0.142777
O 	0.000000	0.000000	2.080000
H 	-0.597323	0.489740	2.715106
H 	0.597323	-0.489740	2.665511
O 	0.000000	-0.000000	-2.080000
H 	0.641754	0.429874	-2.715106
H 	-0.641754	-0.429874	-2.665511
