23
06/05/2024 23:53, XYZ structure generated by mol3D Class, molSimplify
Fe 	0.000000	0.000000	0.000000
B 	0.000000	2.100000	0.000000
N 	0.307755	2.837816	-1.327936
N 	0.552209	2.172358	-2.382732
N 	0.796663	1.506900	-3.437528
C 	-0.307755	2.937779	1.327936
C 	-0.558548	3.620493	2.410084
H 	-0.764359	4.180757	3.298141
O 	2.080000	0.000000	0.000000
H 	2.715106	0.325346	-0.700564
H 	2.665511	-0.325346	0.700564
O 	-0.000000	-2.080000	0.000000
H 	0.349597	-2.715106	-0.688783
H 	-0.349597	-2.665511	0.688783
O 	-2.080000	0.000000	0.000000
H 	-2.715106	-0.373422	-0.676163
H 	-2.665511	0.373422	0.676163
O 	0.000000	0.000000	2.080000
H 	-0.662718	-0.396792	2.715106
H 	0.662718	0.396792	2.665511
O 	0.000000	-0.000000	-2.080000
H 	0.679739	-0.366872	-2.715106
H 	-0.679739	0.366872	-2.665511
