28
06/06/2024 02:39, XYZ structure generated by mol3D Class, molSimplify
Fe 	0.000000	0.000000	0.000000
B 	-0.000000	2.100000	0.000000
C 	-1.234877	1.300000	-0.628553
O 	-1.234877	0.029100	-0.628553
N 	-2.369420	2.035000	-1.206037
C 	-2.369420	3.505000	-1.206037
C 	1.234877	1.300000	0.628553
O 	2.215755	1.935450	1.127821
H 	-3.156654	1.525000	-1.606740
H 	-2.422638	3.861669	-2.213437
H 	-3.215246	3.861668	-0.656249
H 	-1.470375	3.861663	-0.748423
H 	1.234877	0.230000	0.628553
O 	2.080000	-0.000000	-0.000000
H 	2.715106	0.406783	0.656633
H 	2.665511	-0.406783	-0.656633
O 	0.000000	-2.080000	0.000000
H 	0.383619	-2.715106	0.670430
H 	-0.383619	-2.665511	-0.670430
O 	-2.080000	0.000000	0.000000
H 	-2.715106	-0.359988	0.683409
H 	-2.665511	0.359988	-0.683409
O 	0.000000	0.000000	2.080000
H 	0.695557	-0.335918	2.715106
H 	-0.695557	0.335918	2.665511
O 	0.000000	0.000000	-2.080000
H 	-0.552520	-0.539779	-2.715106
H 	0.552520	0.539779	-2.665511
