27
06/06/2024 01:57, XYZ structure generated by mol3D Class, molSimplify
Fe 	0.000000	0.000000	0.000000
B 	0.000000	2.100000	0.000000
O 	-0.572893	1.350000	1.165887
C 	-1.048883	2.272763	2.134568
O 	0.572893	1.350000	-1.165887
C 	1.048883	2.272763	-2.134568
F 	0.043181	3.037402	-2.550248
F 	1.992444	3.037399	-1.592420
F 	1.556848	1.607763	-3.168322
H 	-0.239784	2.887924	2.468987
H 	-1.807988	2.887922	1.698404
H 	-1.457547	1.737763	2.966235
O 	2.080000	0.000000	-0.000000
H 	2.715106	0.016862	0.772241
H 	2.665511	-0.016862	-0.772241
O 	-0.000000	-2.080000	0.000000
H 	-0.010099	-2.715106	0.772359
H 	0.010099	-2.665511	-0.772359
O 	-2.080000	0.000000	0.000000
H 	-2.715106	0.037048	0.771536
H 	-2.665511	-0.037048	-0.771536
O 	0.000000	0.000000	2.080000
H 	0.769773	0.063952	2.715106
H 	-0.769773	-0.063952	2.665511
O 	0.000000	0.000000	-2.080000
H 	-0.770780	0.050373	-2.715106
H 	0.770780	-0.050373	-2.665511
