27
06/05/2024 23:49, XYZ structure generated by mol3D Class, molSimplify
Fe 	0.000000	0.000000	0.000000
B 	0.000000	2.100000	-0.000000
C 	-0.655419	2.900000	1.220830
O 	-0.655419	4.170900	1.220830
N 	-1.257586	2.165000	2.342467
C 	0.655419	2.900000	-1.220830
O 	1.176027	2.264550	-2.190550
N 	0.655419	4.370000	-1.220830
H 	-1.257586	1.145000	2.342467
H 	-1.675415	2.675000	3.120746
H 	0.237589	4.880000	-0.442551
H 	1.073249	4.880000	-1.999109
O 	2.080000	-0.000000	0.000000
H 	2.715106	-0.393816	-0.664492
H 	2.665511	0.393816	0.664492
O 	-0.000000	-2.080000	0.000000
H 	-0.370385	-2.715106	-0.677831
H 	0.370385	-2.665511	0.677831
O 	-2.080000	0.000000	0.000000
H 	-2.715106	0.346504	-0.690344
H 	-2.665511	-0.346504	0.690344
O 	0.000000	0.000000	2.080000
H 	-0.645253	-0.424604	2.715106
H 	0.645253	0.424604	2.665511
O 	0.000000	-0.000000	-2.080000
H 	0.709908	0.304418	-2.715106
H 	-0.709908	-0.304418	-2.665511
