23
06/06/2024 01:05, XYZ structure generated by mol3D Class, molSimplify
Fe 	0.000000	0.000000	0.000000
B 	0.000000	2.100000	0.000000
C 	1.351519	2.937779	0.177549
O 	1.316889	4.208199	0.173000
N 	-1.351519	2.837816	-0.177549
O 	-2.508757	2.120468	-0.329576
O 	-1.384929	4.063503	-0.181939
H 	2.284503	2.428447	0.300116
O 	2.080000	0.000000	0.000000
H 	2.715106	-0.392880	-0.665045
H 	2.665511	0.392880	0.665045
O 	-0.000000	-2.080000	0.000000
H 	-0.369431	-2.715106	-0.678351
H 	0.369431	-2.665511	0.678351
O 	-2.080000	0.000000	0.000000
H 	-2.715106	0.088416	-0.767348
H 	-2.665511	-0.088416	0.767348
O 	0.000000	0.000000	2.080000
H 	-0.769966	0.061582	2.715106
H 	0.769966	-0.061582	2.665511
O 	0.000000	0.000000	-2.080000
H 	0.763763	0.115354	-2.715106
H 	-0.763763	-0.115354	-2.665511
