29
06/05/2024 22:44, XYZ structure generated by mol3D Class, molSimplify
Fe 	0.000000	0.000000	0.000000
B 	0.000000	2.100000	0.000000
O 	-1.417679	2.581681	-0.090390
C 	-2.294072	1.465790	-0.146268
F 	-2.006893	0.729662	-1.216102
F 	-2.145091	0.729664	0.951376
F 	-3.551081	1.892881	-0.226414
S 	1.417679	3.346642	0.090390
O 	2.750163	2.598614	0.175348
O 	1.404944	4.225399	-1.162567
C 	1.214535	4.385911	1.558298
F 	0.056573	5.035966	1.484467
F 	1.225602	3.622248	2.647150
F 	2.212161	5.263177	1.621906
O 	2.080000	-0.000000	0.000000
H 	2.715106	0.465584	-0.616337
H 	2.665511	-0.465584	0.616337
O 	-0.000000	-2.080000	0.000000
H 	0.486810	-2.715106	-0.599713
H 	-0.486810	-2.665511	0.599713
O 	-2.080000	0.000000	0.000000
H 	-2.715106	0.146492	-0.758406
H 	-2.665511	-0.146492	0.758406
O 	0.000000	0.000000	2.080000
H 	-0.763057	0.119934	2.715106
H 	0.763057	-0.119934	2.665511
O 	0.000000	0.000000	-2.080000
H 	0.093231	-0.766778	-2.715106
H 	-0.093231	0.766778	-2.665511
