31
06/06/2024 03:00, XYZ structure generated by mol3D Class, molSimplify
Fe 	0.000000	0.000000	0.000000
B 	0.000000	2.100000	-0.000000
O 	1.025280	2.850000	-0.797684
C 	1.995879	2.140000	-1.552825
O 	1.995879	0.869100	-1.552825
C 	3.034830	2.900000	-2.361146
O 	-1.025280	2.850000	0.797684
C 	-1.995879	2.140000	1.552825
O 	-1.995879	0.869100	1.552825
C 	-3.034830	2.900000	2.361146
F 	-2.423609	3.664640	3.261499
F 	-3.757267	3.664637	1.547319
F 	-3.832696	2.035722	2.981898
H 	2.543096	3.515161	-3.085490
H 	3.616039	3.515159	-1.706413
H 	3.676722	2.204679	-2.860548
O 	2.080000	0.000000	-0.000000
H 	2.715106	-0.766557	-0.095030
H 	2.665511	0.766557	0.095030
O 	0.000000	-2.080000	0.000000
H 	-0.762773	-2.715106	-0.121725
H 	0.762773	-2.665511	0.121725
O 	-2.080000	0.000000	0.000000
H 	-2.715106	0.758060	-0.148271
H 	-2.665511	-0.758060	0.148271
O 	0.000000	0.000000	2.080000
H 	-0.174637	0.752424	2.715106
H 	0.174637	-0.752424	2.665511
O 	0.000000	-0.000000	-2.080000
H 	-0.252275	0.730066	-2.715106
H 	0.252275	-0.730066	-2.665511
