35
06/05/2024 22:48, XYZ structure generated by mol3D Class, molSimplify
Fe 	0.000000	0.000000	0.000000
B 	0.000000	2.100000	-0.000000
C 	-1.233054	2.900000	0.632121
C 	-0.738538	3.773874	1.773260
C 	-1.870879	3.773871	-0.435554
C 	-2.261148	1.912254	1.159170
C 	1.233054	2.900000	-0.632121
O 	2.212485	2.264550	-1.134223
N 	1.233054	4.370000	-0.632121
H 	-0.014814	4.469195	1.402245
H 	-1.563144	4.308872	2.195992
H 	-0.289543	3.158714	2.524847
H 	-2.218994	3.158714	-1.238858
H 	-2.695486	4.308868	-0.012823
H 	-1.147151	4.469190	-0.806565
H 	-2.609262	1.297093	0.355869
H 	-1.812153	1.297095	1.910757
H 	-3.085753	2.447254	1.581902
H 	0.446982	4.880000	-0.229144
H 	2.019126	4.880000	-1.035099
O 	2.080000	0.000000	0.000000
H 	2.715106	0.743697	0.208699
H 	2.665511	-0.743697	-0.208699
O 	-0.000000	-2.080000	0.000000
H 	0.735960	-2.715106	0.234526
H 	-0.735960	-2.665511	-0.234526
O 	-2.080000	0.000000	0.000000
H 	-2.715106	-0.293409	0.714529
H 	-2.665511	0.293409	-0.714529
O 	0.000000	0.000000	2.080000
H 	0.707414	0.310170	2.715106
H 	-0.707414	-0.310170	2.665511
O 	0.000000	0.000000	-2.080000
H 	-0.575054	-0.515706	-2.715106
H 	0.575054	0.515706	-2.665511
