32
06/05/2024 23:46, XYZ structure generated by mol3D Class, molSimplify
Fe 	0.000000	0.000000	0.000000
B 	0.000000	2.100000	0.000000
C 	-1.328347	2.900000	0.394329
C 	-1.941428	2.480842	1.563517
C 	-3.214903	3.057654	1.781693
C 	-3.659118	4.143483	1.175339
C 	-2.969396	4.545378	0.065288
C 	-1.784869	3.944581	-0.286611
C 	1.328347	2.900000	-0.394329
F 	2.297455	2.035728	-0.682015
F 	1.086850	3.664636	-1.455418
F 	1.704921	3.664637	0.626662
H 	-1.492717	1.784065	2.240318
H 	-3.863088	2.580923	2.487019
H 	-4.512873	4.679889	1.533489
H 	-3.357666	5.339181	-0.538054
H 	-1.225217	4.321859	-1.116882
O 	2.080000	-0.000000	0.000000
H 	2.715106	-0.436617	-0.637186
H 	2.665511	0.436617	0.637186
O 	0.000000	-2.080000	0.000000
H 	-0.414114	-2.715106	-0.652035
H 	0.414114	-2.665511	0.652035
O 	-2.080000	0.000000	0.000000
H 	-2.715106	0.391106	-0.666090
H 	-2.665511	-0.391106	0.666090
O 	0.000000	0.000000	2.080000
H 	-0.761653	-0.128550	2.715106
H 	0.761653	0.128550	2.665511
O 	0.000000	-0.000000	-2.080000
H 	-0.155053	-0.756702	-2.715106
H 	0.155053	0.756702	-2.665511
