26
06/05/2024 22:39, XYZ structure generated by mol3D Class, molSimplify
Fe 	0.000000	0.000000	0.000000
B 	0.000000	2.100000	-0.000000
C 	-1.266709	2.900000	-0.561648
C 	-1.266709	4.260400	-0.561648
C 	1.266709	2.900000	0.561648
Cl 	2.503528	1.743306	1.110042
Cl 	1.942008	3.923348	-0.728752
Cl 	0.763803	3.923349	1.928484
H 	-2.113821	2.365000	-0.937249
H 	-2.113821	4.795400	-0.937249
H 	-0.419597	4.795400	-0.186046
O 	2.080000	0.000000	0.000000
H 	2.715106	0.495545	-0.592516
H 	2.665511	-0.495545	0.592516
O 	0.000000	-2.080000	0.000000
H 	0.515921	-2.715106	-0.574861
H 	-0.515921	-2.665511	0.574861
O 	-2.080000	0.000000	0.000000
H 	-2.715106	-0.535669	-0.556505
H 	-2.665511	0.535669	0.556505
O 	0.000000	0.000000	2.080000
H 	-0.537472	-0.554765	2.715106
H 	0.537472	0.554765	2.665511
O 	0.000000	-0.000000	-2.080000
H 	0.517783	-0.573184	-2.715106
H 	-0.517783	0.573184	-2.665511
