31
06/05/2024 22:42, XYZ structure generated by mol3D Class, molSimplify
Fe 	0.000000	0.000000	0.000000
B 	0.000000	2.100000	0.000000
C 	-1.485449	2.694448	-0.008561
O 	-1.666493	3.952386	-0.009604
N 	-2.640798	1.785589	-0.015219
C 	-2.431391	0.330582	-0.014013
S 	1.485449	3.268533	0.008561
O 	2.778506	2.449860	0.016013
O 	1.447555	4.150986	-1.241286
N 	1.425298	4.283344	1.445273
H 	-3.587772	2.164550	-0.020677
H 	-2.884868	-0.094305	0.857038
H 	-2.874797	-0.094304	-0.890234
H 	-1.382081	0.121267	-0.007965
H 	1.450553	3.695214	2.278259
H 	2.226969	4.913980	1.449893
O 	2.080000	0.000000	0.000000
H 	2.715106	-0.102990	-0.765528
H 	2.665511	0.102990	0.765528
O 	-0.000000	-2.080000	0.000000
H 	-0.076211	-2.715106	-0.768656
H 	0.076211	-2.665511	0.768656
O 	-2.080000	0.000000	0.000000
H 	-2.715106	-0.479132	-0.605865
H 	-2.665511	0.479132	0.605865
O 	0.000000	0.000000	2.080000
H 	-0.588775	-0.499984	2.715106
H 	0.588775	0.499984	2.665511
O 	0.000000	-0.000000	-2.080000
H 	0.570967	-0.520228	-2.715106
H 	-0.570967	0.520228	-2.665511
