26
06/05/2024 22:40, XYZ structure generated by mol3D Class, molSimplify
Fe 	0.000000	0.000000	0.000000
B 	0.000000	2.100000	-0.000000
C 	-1.377169	2.900000	-0.152993
C 	-2.499437	3.551928	-0.277668
C 	1.377169	2.900000	0.152993
O 	2.471071	2.264550	0.274517
C 	1.377169	4.420000	0.152993
H 	-3.420418	4.086928	-0.379982
H 	0.972311	4.776669	-0.771008
H 	0.779388	4.776668	0.965610
H 	2.379808	4.776663	0.264378
O 	2.080000	0.000000	0.000000
H 	2.715106	0.226576	0.738446
H 	2.665511	-0.226576	-0.738446
O 	-0.000000	-2.080000	0.000000
H 	0.200667	-2.715106	0.745904
H 	-0.200667	-2.665511	-0.745904
O 	-2.080000	0.000000	0.000000
H 	-2.715106	-0.174513	0.752453
H 	-2.665511	0.174513	-0.752453
O 	0.000000	0.000000	2.080000
H 	0.758085	-0.148147	2.715106
H 	-0.758085	0.148147	2.665511
O 	0.000000	-0.000000	-2.080000
H 	-0.121599	0.762793	-2.715106
H 	0.121599	-0.762793	-2.665511
