30
06/06/2024 01:09, XYZ structure generated by mol3D Class, molSimplify
Fe 	0.000000	0.000000	0.000000
B 	0.000000	2.100000	0.000000
N 	1.327702	2.837816	-0.308761
C 	1.698011	3.680482	0.837400
C 	-1.327702	2.937779	0.308761
O 	-2.416333	2.332817	0.561925
O 	-1.289691	4.357242	0.299922
C 	-2.468027	5.100771	0.573947
H 	2.064803	2.153931	-0.480176
H 	1.824247	3.067115	1.705010
H 	2.614555	4.189811	0.624257
H 	0.924775	4.397890	1.017214
H 	-3.219133	4.857796	-0.148343
H 	-2.823352	4.857797	1.553543
H 	-2.249497	6.146984	0.523127
O 	2.080000	0.000000	0.000000
H 	2.715106	-0.317468	-0.704169
H 	2.665511	0.317468	0.704169
O 	-0.000000	-2.080000	0.000000
H 	-0.292700	-2.715106	-0.714819
H 	0.292700	-2.665511	0.714819
O 	-2.080000	0.000000	0.000000
H 	-2.715106	0.267574	-0.724599
H 	-2.665511	-0.267574	0.724599
O 	0.000000	0.000000	2.080000
H 	-0.733496	0.242123	2.715106
H 	0.733496	-0.242123	2.665511
O 	0.000000	0.000000	-2.080000
H 	0.690498	0.346196	-2.715106
H 	-0.690498	-0.346196	-2.665511
