25
06/06/2024 00:42, XYZ structure generated by mol3D Class, molSimplify
Fe 	0.000000	0.000000	0.000000
B 	0.000000	2.100000	0.000000
S 	-1.453129	3.307636	0.046170
O 	-1.344924	4.188581	1.292968
O 	-1.424291	4.188578	-1.204984
O 	-2.920986	2.431667	0.092808
N 	1.453129	2.637386	-0.046170
O 	2.506456	1.762010	-0.079637
O 	1.659921	3.845954	-0.052740
H 	-3.689838	3.070628	0.117237
O 	2.080000	0.000000	0.000000
H 	2.715106	0.140059	0.759620
H 	2.665511	-0.140059	-0.759620
O 	0.000000	-2.080000	0.000000
H 	0.113463	-2.715106	0.764046
H 	-0.113463	-2.665511	-0.764046
O 	-2.080000	0.000000	0.000000
H 	-2.715106	-0.086730	0.767540
H 	-2.665511	0.086730	-0.767540
O 	0.000000	0.000000	2.080000
H 	0.770099	-0.059890	2.715106
H 	-0.770099	0.059890	2.665511
O 	0.000000	-0.000000	-2.080000
H 	-0.771720	-0.032977	-2.715106
H 	0.771720	0.032977	-2.665511
