29
06/06/2024 00:31, XYZ structure generated by mol3D Class, molSimplify
Fe 	0.000000	0.000000	0.000000
B 	0.000000	2.100000	-0.000000
N 	-1.313715	2.875000	0.275734
C 	-1.636472	3.720125	-0.882926
C 	-2.407202	1.919746	0.505244
N 	1.313715	2.875000	-0.275734
N 	2.390876	2.239550	-0.501818
N 	3.468037	1.604100	-0.727901
H 	-1.760459	3.104968	-1.749591
H 	-2.543361	4.255123	-0.692582
H 	-0.840530	4.415444	-1.049980
H 	-2.531187	1.304585	-0.361419
H 	-2.172269	1.304587	1.348622
H 	-3.314089	2.454746	0.695589
O 	2.080000	0.000000	0.000000
H 	2.715106	0.311818	0.706689
H 	2.665511	-0.311818	-0.706689
O 	0.000000	-2.080000	0.000000
H 	0.286965	-2.715106	0.717141
H 	-0.286965	-2.665511	-0.717141
O 	-2.080000	0.000000	0.000000
H 	-2.715106	0.056451	0.770359
H 	-2.665511	-0.056451	-0.770359
O 	0.000000	0.000000	2.080000
H 	0.767920	0.083302	2.715106
H 	-0.767920	-0.083302	2.665511
O 	0.000000	0.000000	-2.080000
H 	0.110051	0.764545	-2.715106
H 	-0.110051	-0.764545	-2.665511
