24
06/06/2024 02:19, XYZ structure generated by mol3D Class, molSimplify
Fe 	0.000000	0.000000	0.000000
B 	0.000000	2.100000	0.000000
N 	1.103505	2.637386	-0.946569
O 	1.986965	3.401480	-0.230637
S 	-1.103505	3.307636	0.946569
C 	-2.283380	2.380441	1.958648
N 	-3.105360	1.734495	2.663730
H 	1.598625	1.853243	-1.371276
H 	1.501548	4.170246	0.185740
O 	2.080000	0.000000	0.000000
H 	2.715106	-0.121093	-0.762874
H 	2.665511	0.121093	0.762874
O 	0.000000	-2.080000	0.000000
H 	-0.094395	-2.715106	-0.766635
H 	0.094395	-2.665511	0.766635
O 	-2.080000	0.000000	0.000000
H 	-2.715106	0.067583	-0.769462
H 	-2.665511	-0.067583	0.769462
O 	0.000000	0.000000	2.080000
H 	-0.771352	0.040688	2.715106
H 	0.771352	-0.040688	2.665511
O 	0.000000	0.000000	-2.080000
H 	0.013743	-0.772302	-2.715106
H 	-0.013743	0.772302	-2.665511
