36
06/06/2024 01:27, XYZ structure generated by mol3D Class, molSimplify
Fe 	0.000000	0.000000	0.000000
B 	0.000000	2.100000	0.000000
N 	-0.031462	2.837816	1.362768
C 	-0.032394	4.307261	1.403157
C 	0.717197	4.903541	2.403720
C 	0.351598	6.243735	2.672546
C 	-0.355715	7.004985	1.857547
C 	-1.018401	6.363555	0.848159
C 	-0.813013	5.026817	0.605589
C 	0.031462	2.937779	-1.362768
O 	0.057259	2.332817	-2.480150
C 	0.030498	4.457205	-1.321006
H 	-0.051519	2.303733	2.231533
H 	1.501564	4.396672	2.925978
H 	0.670381	6.670074	3.600723
H 	-0.407418	8.066637	1.980520
H 	-1.706855	6.910434	0.238360
H 	-1.286384	4.561438	-0.233602
H 	-0.854783	4.799876	-0.827292
H 	0.892053	4.799875	-0.786965
H 	0.053547	4.841457	-2.319364
O 	2.080000	0.000000	0.000000
H 	2.715106	-0.408686	-0.655451
H 	2.665511	0.408686	0.655451
O 	0.000000	-2.080000	0.000000
H 	-0.385562	-2.715106	-0.669314
H 	0.385562	-2.665511	0.669314
O 	-2.080000	0.000000	0.000000
H 	-2.715106	0.361968	-0.682363
H 	-2.665511	-0.361968	0.682363
O 	0.000000	0.000000	2.080000
H 	-0.694579	0.337934	2.715106
H 	0.694579	-0.337934	2.665511
O 	0.000000	-0.000000	-2.080000
H 	0.705950	0.313488	-2.715106
H 	-0.705950	-0.313488	-2.665511
