33
06/06/2024 02:36, XYZ structure generated by mol3D Class, molSimplify
Fe 	0.000000	0.000000	0.000000
B 	-0.000000	2.100000	-0.000000
N 	-1.232000	2.912787	0.473341
C 	-1.193053	4.382195	0.458378
O 	-2.203214	5.048628	0.846487
C 	0.055374	5.104527	-0.021275
O 	1.232000	2.812827	-0.473341
S 	2.415336	1.665171	-0.927986
O 	2.764539	0.787945	0.276510
O 	1.868208	0.787948	-2.056439
C 	3.901950	2.525316	-1.499151
H 	-2.069761	2.428064	0.795214
H 	0.885404	4.830213	0.595735
H 	0.258740	4.830214	-1.035324
H 	-0.099198	6.161636	0.038112
H 	3.657808	3.138621	-2.341263
H 	4.284470	3.138618	-0.710203
H 	4.642400	1.807192	-1.783636
O 	2.080000	-0.000000	0.000000
H 	2.715106	0.186134	-0.749662
H 	2.665511	-0.186134	0.749662
O 	-0.000000	-2.080000	0.000000
H 	0.212184	-2.715106	-0.742710
H 	-0.212184	-2.665511	0.742710
O 	-2.080000	0.000000	0.000000
H 	-2.715106	-0.237975	-0.734852
H 	-2.665511	0.237975	0.734852
O 	0.000000	0.000000	2.080000
H 	-0.726099	-0.263476	2.715106
H 	0.726099	0.263476	2.665511
O 	0.000000	-0.000000	-2.080000
H 	0.502772	-0.586396	-2.715106
H 	-0.502772	0.586396	-2.665511
