28
06/06/2024 00:49, XYZ structure generated by mol3D Class, molSimplify
Fe 	0.000000	0.000000	0.000000
B 	0.000000	2.100000	0.000000
N 	0.470726	2.912787	-1.233002
O 	1.533660	3.702163	-0.880926
O 	-0.470726	2.812827	1.233002
C 	-0.901973	2.068210	2.362591
O 	-0.889107	0.797822	2.328891
C 	-1.378975	2.790541	3.612033
F 	-0.397316	3.552873	4.085419
F 	-2.426356	3.552870	3.310787
F 	-1.730634	1.897920	4.533153
H 	0.753839	2.272229	-1.974576
H 	1.256094	4.330159	-0.153892
O 	2.080000	-0.000000	0.000000
H 	2.715106	0.322393	-0.701928
H 	2.665511	-0.322393	0.701928
O 	-0.000000	-2.080000	0.000000
H 	0.346693	-2.715106	-0.690249
H 	-0.346693	-2.665511	0.690249
O 	-2.080000	0.000000	0.000000
H 	-2.715106	-0.580020	-0.510114
H 	-2.665511	0.580020	0.510114
O 	0.000000	0.000000	2.080000
H 	-0.489561	-0.597469	2.715106
H 	0.489561	0.597469	2.665511
O 	0.000000	-0.000000	-2.080000
H 	0.468412	-0.614191	-2.715106
H 	-0.468412	0.614191	-2.665511
