27
06/06/2024 00:31, XYZ structure generated by mol3D Class, molSimplify
Fe 	0.000000	0.000000	0.000000
B 	0.000000	2.100000	0.000000
O 	-0.333629	2.776364	-1.296620
C 	-0.629725	1.998867	-2.447370
O 	-0.612058	0.729946	-2.378708
C 	-0.967802	2.684250	-3.761278
C 	0.333629	2.976053	1.296620
O 	0.616302	2.402992	2.395202
H 	-1.836546	3.295291	-3.631617
H 	-0.144364	3.295289	-4.067026
H 	-1.160482	1.944642	-4.510113
H 	0.318755	4.044387	1.238812
O 	2.080000	0.000000	0.000000
H 	2.715106	0.552491	0.539809
H 	2.665511	-0.552491	-0.539809
O 	0.000000	-2.080000	0.000000
H 	0.533315	-2.715106	0.558762
H 	-0.533315	-2.665511	-0.558762
O 	-2.080000	0.000000	0.000000
H 	-2.715106	-0.513490	0.577034
H 	-2.665511	0.513490	-0.577034
O 	0.000000	0.000000	2.080000
H 	0.594603	-0.493039	2.715106
H 	-0.594603	0.493039	2.665511
O 	0.000000	0.000000	-2.080000
H 	0.342660	0.692260	-2.715106
H 	-0.342660	-0.692260	-2.665511
