27
06/06/2024 00:59, XYZ structure generated by mol3D Class, molSimplify
Fe 	0.000000	0.000000	0.000000
B 	0.000000	2.100000	-0.000000
C 	-1.239434	2.694448	-0.818801
O 	-1.390495	3.952386	-0.918595
O 	-2.170649	1.816503	-1.433985
S 	1.239434	3.268533	0.818801
O 	2.318340	2.449860	1.531553
O 	1.890597	4.150986	-0.248691
N 	0.404054	4.283344	1.989228
H 	-2.945295	2.188033	-1.945735
H 	-0.029927	3.695214	2.700680
H 	1.072955	4.913980	2.431120
O 	2.080000	0.000000	0.000000
H 	2.715106	0.766809	-0.092973
H 	2.665511	-0.766809	0.092973
O 	-0.000000	-2.080000	0.000000
H 	0.769586	-2.715106	-0.066155
H 	-0.769586	-2.665511	0.066155
O 	-2.080000	0.000000	0.000000
H 	-2.715106	0.095297	0.766524
H 	-2.665511	-0.095297	-0.766524
O 	0.000000	0.000000	2.080000
H 	0.762731	0.121990	2.715106
H 	-0.762731	-0.121990	2.665511
O 	0.000000	-0.000000	-2.080000
H 	-0.758009	0.148534	-2.715106
H 	0.758009	-0.148534	-2.665511
