28
06/06/2024 00:57, XYZ structure generated by mol3D Class, molSimplify
Fe 	0.000000	0.000000	0.000000
B 	0.000000	2.100000	-0.000000
N 	-1.304469	2.875000	0.316601
C 	-1.304469	4.345000	0.316601
O 	-2.374049	4.980450	0.576193
N 	-0.067327	5.080000	0.016341
N 	1.304469	2.875000	-0.316601
C 	2.411710	2.217175	-0.585334
H 	-2.162893	2.365000	0.524945
H 	0.791097	4.570000	-0.192003
H 	-0.067327	6.100000	0.016341
H 	2.411710	1.147175	-0.585334
H 	3.312215	2.752175	-0.803891
O 	2.080000	-0.000000	0.000000
H 	2.715106	-0.522170	-0.569191
H 	2.665511	0.522170	0.569191
O 	-0.000000	-2.080000	0.000000
H 	-0.501987	-2.715106	-0.587068
H 	0.501987	-2.665511	0.587068
O 	-2.080000	0.000000	0.000000
H 	-2.715106	0.481193	-0.604229
H 	-2.665511	-0.481193	0.604229
O 	0.000000	0.000000	2.080000
H 	-0.620655	0.459812	2.715106
H 	0.620655	-0.459812	2.665511
O 	0.000000	-0.000000	-2.080000
H 	0.636324	0.437872	-2.715106
H 	-0.636324	-0.437872	-2.665511
