39
06/06/2024 01:04, XYZ structure generated by mol3D Class, molSimplify
Fe 	0.000000	0.000000	0.000000
B 	0.000000	2.100000	0.000000
C 	-1.384414	2.900000	0.058297
C 	-2.236744	2.727963	1.136491
C 	-3.533407	3.256151	0.932205
C 	-3.844448	4.138369	0.000024
C 	-2.930313	4.312495	-1.001718
C 	-1.690437	3.723919	-0.937066
C 	1.384414	2.900000	-0.058297
C 	2.575296	2.194416	-0.108445
C 	3.721730	2.986518	0.137146
C 	3.750911	4.304787	0.064122
C 	2.540206	4.939926	0.048592
C 	1.369965	4.227792	-0.057689
H 	-1.941401	2.239918	2.041745
H 	-4.316404	2.917203	1.577906
H 	-4.762465	4.687373	0.027221
H 	-3.184131	4.915793	-1.848186
H 	-0.964904	3.931366	-1.695662
H 	2.623886	1.145516	-0.314233
H 	4.628070	2.482356	0.400336
H 	4.672456	4.846695	0.019509
H 	2.503527	6.006894	0.120235
H 	0.438557	4.747874	-0.140717
O 	2.080000	-0.000000	-0.000000
H 	2.715106	0.319140	0.703413
H 	2.665511	-0.319140	-0.703413
O 	0.000000	-2.080000	0.000000
H 	0.294397	-2.715106	0.714122
H 	-0.294397	-2.665511	-0.714122
O 	-2.080000	0.000000	0.000000
H 	-2.715106	-0.269295	0.723961
H 	-2.665511	0.269295	-0.723961
O 	0.000000	0.000000	2.080000
H 	0.732918	-0.243865	2.715106
H 	-0.732918	0.243865	2.665511
O 	0.000000	0.000000	-2.080000
H 	-0.491958	0.595498	-2.715106
H 	0.491958	-0.595498	-2.665511
