21
06/06/2024 02:25, XYZ structure generated by mol3D Class, molSimplify
Fe 	0.000000	0.000000	0.000000
B 	-0.000000	2.100000	0.000000
F 	-0.519333	2.702946	-1.163980
N 	0.519333	2.982012	1.163980
O 	1.023933	2.396170	2.294939
O 	0.478542	4.204068	1.072555
O 	2.080000	0.000000	0.000000
H 	2.715106	-0.539862	-0.552439
H 	2.665511	0.539862	0.552439
O 	-0.000000	-2.080000	0.000000
H 	-0.520254	-2.715106	-0.570943
H 	0.520254	-2.665511	0.570943
O 	-2.080000	0.000000	0.000000
H 	-2.715106	0.500011	-0.588752
H 	-2.665511	-0.500011	0.588752
O 	0.000000	0.000000	2.080000
H 	-0.605843	0.479159	2.715106
H 	0.605843	-0.479159	2.665511
O 	0.000000	0.000000	-2.080000
H 	0.131646	0.761124	-2.715106
H 	-0.131646	-0.761124	-2.665511
