28
06/06/2024 02:36, XYZ structure generated by mol3D Class, molSimplify
Fe 	0.000000	0.000000	0.000000
B 	0.000000	2.100000	0.000000
O 	-1.193871	2.776364	0.605972
C 	-2.108903	1.794829	1.070413
F 	-2.499639	1.035310	0.050925
F 	-1.516636	1.035313	1.987614
F 	-3.167469	2.394539	1.607709
C 	1.193871	2.976053	-0.605972
O 	2.205399	2.402992	-1.119392
C 	1.118260	4.493686	-0.567594
H 	0.256017	4.821661	-1.109691
H 	1.046856	4.821660	0.448396
H 	1.998681	4.906070	-1.014468
O 	2.080000	0.000000	0.000000
H 	2.715106	0.721408	0.276063
H 	2.665511	-0.721408	-0.276063
O 	-0.000000	-2.080000	0.000000
H 	0.711334	-2.715106	0.301072
H 	-0.711334	-2.665511	-0.301072
O 	-2.080000	0.000000	0.000000
H 	-2.715106	-0.252235	0.730080
H 	-2.665511	0.252235	-0.730080
O 	0.000000	0.000000	2.080000
H 	0.633193	0.442387	2.715106
H 	-0.633193	-0.442387	2.665511
O 	0.000000	-0.000000	-2.080000
H 	-0.415742	-0.650998	-2.715106
H 	0.415742	0.650998	-2.665511
