37
06/06/2024 02:53, XYZ structure generated by mol3D Class, molSimplify
Fe 	0.000000	0.000000	0.000000
B 	0.000000	2.100000	0.000000
S 	-1.438442	3.268533	-0.370832
C 	-2.919289	2.300314	-0.752596
C 	-2.902543	1.429509	-1.829621
C 	-4.182331	0.956398	-2.204266
C 	-5.254879	1.009084	-1.435579
C 	-5.184222	1.835885	-0.348906
C 	-4.000984	2.437931	0.005189
C 	1.438442	2.694448	0.370832
O 	2.405699	1.908687	0.620192
N 	1.641222	4.149456	0.423109
C 	0.522434	5.058314	0.134684
H 	-2.003385	1.140785	-2.332665
H 	-4.288501	0.526005	-3.178119
H 	-6.132007	0.435584	-1.651553
H 	-6.063011	2.016681	0.234139
H 	-3.950720	3.022970	0.899674
H 	2.558229	4.528416	0.659514
H 	0.334868	5.675276	0.988544
H 	0.771062	5.675274	-0.703436
H 	-0.352984	4.485942	-0.091000
O 	2.080000	-0.000000	-0.000000
H 	2.715106	0.128979	-0.761580
H 	2.665511	-0.128979	0.761580
O 	-0.000000	-2.080000	0.000000
H 	0.155479	-2.715106	-0.756615
H 	-0.155479	-2.665511	0.756615
O 	-2.080000	0.000000	0.000000
H 	-2.715106	-0.333903	-0.696526
H 	-2.665511	0.333903	0.696526
O 	0.000000	0.000000	2.080000
H 	-0.684449	-0.358008	2.715106
H 	0.684449	0.358008	2.665511
O 	0.000000	0.000000	-2.080000
H 	-0.029191	-0.771873	-2.715106
H 	0.029191	0.771873	-2.665511
