25
06/06/2024 01:36, XYZ structure generated by mol3D Class, molSimplify
Fe 	0.000000	0.000000	0.000000
B 	0.000000	2.100000	0.000000
C 	-1.329222	2.900000	-0.391369
O 	-1.329222	4.170900	-0.391369
N 	-2.550444	2.165000	-0.750939
C 	1.329222	2.900000	0.391369
O 	2.385039	2.264550	0.702238
Cl 	1.329222	4.680000	0.391369
H 	-2.550444	1.145000	-0.750939
H 	-3.397823	2.675000	-1.000437
O 	2.080000	-0.000000	0.000000
H 	2.715106	0.207022	0.744165
H 	2.665511	-0.207022	-0.744165
O 	0.000000	-2.080000	0.000000
H 	0.180924	-2.715106	0.750937
H 	-0.180924	-2.665511	-0.750937
O 	-2.080000	0.000000	0.000000
H 	-2.715106	0.319753	0.703135
H 	-2.665511	-0.319753	-0.703135
O 	0.000000	0.000000	2.080000
H 	0.691547	0.344097	2.715106
H 	-0.691547	-0.344097	2.665511
O 	0.000000	-0.000000	-2.080000
H 	-0.679117	0.368022	-2.715106
H 	0.679117	-0.368022	-2.665511
