36
06/06/2024 01:29, XYZ structure generated by mol3D Class, molSimplify
Fe 	0.000000	0.000000	0.000000
B 	0.000000	2.100000	0.000000
C 	-1.299771	2.937779	-0.410759
C 	-2.507128	2.587845	0.170964
C 	-3.628113	3.233550	-0.402192
C 	-3.565065	4.319520	-1.150999
C 	-2.331760	4.650379	-1.639814
C 	-1.205172	3.980737	-1.227171
N 	1.299771	2.837816	0.410759
C 	2.493935	2.068107	0.788143
O 	3.559664	2.673069	1.124939
C 	2.454104	0.548681	0.775555
H 	-2.585029	1.892331	0.980341
H 	-4.594081	2.812690	-0.215965
H 	-4.432481	4.908787	-1.363727
H 	-2.242645	5.442176	-2.353968
H 	-0.242895	4.302592	-1.566775
H 	1.326500	3.857431	0.419206
H 	1.700719	0.206009	1.453706
H 	2.227243	0.206011	-0.212378
H 	3.406310	0.164429	1.076475
O 	2.080000	-0.000000	0.000000
H 	2.715106	-0.383465	0.670518
H 	2.665511	0.383465	-0.670518
O 	-0.000000	-2.080000	0.000000
H 	-0.406632	-2.715106	0.656727
H 	0.406632	-2.665511	-0.656727
O 	-2.080000	0.000000	0.000000
H 	-2.715106	0.498928	-0.589670
H 	-2.665511	-0.498928	0.589670
O 	0.000000	0.000000	2.080000
H 	-0.412006	-0.653369	2.715106
H 	0.412006	0.653369	2.665511
O 	0.000000	0.000000	-2.080000
H 	-0.772315	-0.013027	-2.715106
H 	0.772315	0.013027	-2.665511
