24
06/05/2024 22:39, XYZ structure generated by mol3D Class, molSimplify
Fe 	0.000000	0.000000	0.000000
B 	0.000000	2.100000	0.000000
C 	-1.239864	2.937779	-0.566448
F 	-1.736071	3.704066	0.400756
F 	-0.833549	3.704063	-1.574722
F 	-2.180609	2.101610	-0.996239
N 	1.239864	2.837816	0.566448
O 	2.301498	2.120468	1.051469
O 	1.270515	4.063503	0.580451
O 	2.080000	-0.000000	0.000000
H 	2.715106	0.094735	0.766593
H 	2.665511	-0.094735	-0.766593
O 	0.000000	-2.080000	0.000000
H 	0.067924	-2.715106	0.769432
H 	-0.067924	-2.665511	-0.769432
O 	-2.080000	0.000000	0.000000
H 	-2.715106	-0.041029	0.771334
H 	-2.665511	0.041029	-0.771334
O 	0.000000	0.000000	2.080000
H 	0.772296	-0.014085	2.715106
H 	-0.772296	0.014085	2.665511
O 	0.000000	-0.000000	-2.080000
H 	0.012876	0.772317	-2.715106
H 	-0.012876	-0.772317	-2.665511
