23
06/06/2024 03:16, XYZ structure generated by mol3D Class, molSimplify
Fe 	0.000000	0.000000	0.000000
B 	-0.000000	2.100000	0.000000
N 	-0.970190	2.837816	-0.957528
C 	-1.767958	2.148927	-1.744885
O 	-2.538592	1.483469	-2.505461
C 	0.970190	2.937779	0.957528
C 	1.760807	3.620493	1.737827
H 	2.409621	4.180757	2.378173
O 	2.080000	0.000000	0.000000
H 	2.715106	-0.260551	-0.727154
H 	2.665511	0.260551	0.727154
O 	-0.000000	-2.080000	0.000000
H 	-0.235015	-2.715106	-0.735804
H 	0.235015	-2.665511	0.735804
O 	-2.080000	0.000000	0.000000
H 	-2.715106	0.209193	-0.743558
H 	-2.665511	-0.209193	0.743558
O 	0.000000	0.000000	2.080000
H 	-0.750406	0.183116	2.715106
H 	0.750406	-0.183116	2.665511
O 	0.000000	0.000000	-2.080000
H 	0.715808	0.290274	-2.715106
H 	-0.715808	-0.290274	-2.665511
