26
06/06/2024 02:59, XYZ structure generated by mol3D Class, molSimplify
Fe 	0.000000	0.000000	0.000000
B 	0.000000	2.100000	0.000000
C 	1.377399	2.900000	0.150904
O 	1.377399	4.170900	0.150904
N 	2.642884	2.165000	0.289546
C 	-1.377399	2.900000	-0.150904
Cl 	-2.722296	1.743306	-0.298246
Cl 	-1.629411	3.923348	1.283547
Cl 	-1.312843	3.923349	-1.605892
H 	2.642884	1.145000	0.289546
H 	3.520976	2.675000	0.385747
O 	2.080000	0.000000	-0.000000
H 	2.715106	0.155276	-0.756657
H 	2.665511	-0.155276	0.756657
O 	0.000000	-2.080000	0.000000
H 	0.181588	-2.715106	-0.750777
H 	-0.181588	-2.665511	0.750777
O 	-2.080000	0.000000	0.000000
H 	-2.715106	0.102116	0.765645
H 	-2.665511	-0.102116	-0.765645
O 	0.000000	0.000000	2.080000
H 	0.761615	0.128775	2.715106
H 	-0.761615	-0.128775	2.665511
O 	0.000000	0.000000	-2.080000
H 	0.155276	0.756657	-2.715106
H 	-0.155276	-0.756657	-2.665511
