33
06/06/2024 03:04, XYZ structure generated by mol3D Class, molSimplify
Fe 	0.000000	0.000000	0.000000
B 	0.000000	2.100000	0.000000
C 	0.177599	2.900000	-1.374212
C 	-0.541533	2.592744	-2.517456
C 	-0.078911	3.252737	-3.680401
C 	0.699032	4.319886	-3.676549
C 	1.328218	4.609513	-2.497697
C 	1.025111	3.921883	-1.347399
C 	-0.177599	2.900000	1.374212
O 	-0.318668	2.264550	2.465766
N 	-0.177599	4.370000	1.374212
H 	-1.371594	1.917550	-2.520860
H 	-0.380345	2.859878	-4.628926
H 	0.829919	4.925302	-4.549039
H 	2.067281	5.382785	-2.470553
H 	1.476085	4.212464	-0.421610
H 	-0.064380	4.880000	0.498152
H 	-0.290818	4.880000	2.250272
O 	2.080000	0.000000	0.000000
H 	2.715106	0.504332	-0.585054
H 	2.665511	-0.504332	0.585054
O 	-0.000000	-2.080000	0.000000
H 	0.524443	-2.715106	-0.567097
H 	-0.524443	-2.665511	0.567097
O 	-2.080000	0.000000	0.000000
H 	-2.715106	-0.543915	-0.548449
H 	-2.665511	0.543915	0.548449
O 	0.000000	0.000000	2.080000
H 	0.737730	-0.228899	2.715106
H 	-0.737730	0.228899	2.665511
O 	0.000000	-0.000000	-2.080000
H 	0.710180	0.303783	-2.715106
H 	-0.710180	-0.303783	-2.665511
