22
06/06/2024 03:00, XYZ structure generated by mol3D Class, molSimplify
Fe 	0.000000	0.000000	0.000000
B 	0.000000	2.100000	0.000000
O 	-1.080699	2.812827	-0.757606
N 	1.080699	2.912787	0.757606
C 	2.028580	2.287566	1.422102
O 	2.944220	1.683611	2.063997
H 	-1.687723	2.141683	-1.183150
O 	2.080000	0.000000	0.000000
H 	2.715106	-0.462028	0.619007
H 	2.665511	0.462028	-0.619007
O 	-0.000000	-2.080000	0.000000
H 	-0.483350	-2.715106	0.602505
H 	0.483350	-2.665511	-0.602505
O 	-2.080000	0.000000	0.000000
H 	-2.715106	0.504083	0.585270
H 	-2.665511	-0.504083	-0.585270
O 	0.000000	0.000000	2.080000
H 	0.567321	0.524201	2.715106
H 	-0.567321	-0.524201	2.665511
O 	0.000000	0.000000	-2.080000
H 	0.543681	0.548681	-2.715106
H 	-0.543681	-0.548681	-2.665511
