22
06/06/2024 03:06, XYZ structure generated by mol3D Class, molSimplify
Fe 	0.000000	0.000000	0.000000
B 	0.000000	2.100000	0.000000
F 	-1.216078	2.702946	0.381719
N 	1.216078	2.982012	-0.381719
C 	2.350783	2.419411	-0.737895
H 	2.434136	1.352984	-0.764060
H 	3.190269	3.028284	-1.001405
O 	2.080000	-0.000000	0.000000
H 	2.715106	-0.511431	-0.578859
H 	2.665511	0.511431	0.578859
O 	-0.000000	-2.080000	0.000000
H 	-0.490918	-2.715106	-0.596355
H 	0.490918	-2.665511	0.596355
O 	-2.080000	0.000000	0.000000
H 	-2.715106	0.469806	-0.613125
H 	-2.665511	-0.469806	0.613125
O 	0.000000	0.000000	2.080000
H 	-0.629147	0.448122	2.715106
H 	0.629147	-0.448122	2.665511
O 	0.000000	-0.000000	-2.080000
H 	0.644403	0.425892	-2.715106
H 	-0.644403	-0.425892	-2.665511
