22
06/05/2024 23:02, XYZ structure generated by mol3D Class, molSimplify
Fe 	0.000000	0.000000	0.000000
B 	0.000000	2.100000	0.000000
C 	-0.174023	2.937779	-1.351977
N 	-0.311171	3.598035	-2.417476
N 	0.174023	2.837816	1.351977
O 	0.323030	2.120468	2.509608
O 	0.178325	4.063503	1.385399
O 	2.080000	0.000000	0.000000
H 	2.715106	-0.533644	-0.558448
H 	2.665511	0.533644	0.558448
O 	-0.000000	-2.080000	0.000000
H 	-0.513830	-2.715106	-0.576731
H 	0.513830	-2.665511	0.576731
O 	-2.080000	0.000000	0.000000
H 	-2.715106	0.493389	-0.594312
H 	-2.665511	-0.493389	0.594312
O 	0.000000	0.000000	2.080000
H 	-0.707286	0.310461	2.715106
H 	0.707286	-0.310461	2.665511
O 	0.000000	-0.000000	-2.080000
H 	0.717690	0.285588	-2.715106
H 	-0.717690	-0.285588	-2.665511
