28
06/06/2024 00:14, XYZ structure generated by mol3D Class, molSimplify
Fe 	0.000000	0.000000	0.000000
B 	0.000000	2.100000	-0.000000
N 	-1.317888	2.912787	0.071046
C 	-1.436274	3.759782	-1.124565
O 	1.317888	2.812827	-0.071046
C 	2.369046	1.859803	-0.127712
H 	-2.110517	2.272229	0.113775
H 	-1.444161	3.143264	-1.999061
H 	-2.346043	4.320865	-1.075522
H 	-0.604789	4.431737	-1.169385
H 	2.342063	1.246498	0.748660
H 	2.248005	1.246500	-0.996107
H 	3.309140	2.368286	-0.178392
O 	2.080000	-0.000000	0.000000
H 	2.715106	-0.013873	0.772300
H 	2.665511	0.013873	-0.772300
O 	-0.000000	-2.080000	0.000000
H 	-0.040817	-2.715106	0.771345
H 	0.040817	-2.665511	-0.771345
O 	-2.080000	0.000000	0.000000
H 	-2.715106	0.067712	0.769451
H 	-2.665511	-0.067712	-0.769451
O 	0.000000	0.000000	2.080000
H 	0.766619	0.094524	2.715106
H 	-0.766619	-0.094524	2.665511
O 	0.000000	-0.000000	-2.080000
H 	-0.768166	0.080996	-2.715106
H 	0.768166	-0.080996	-2.665511
