23
06/05/2024 23:32, XYZ structure generated by mol3D Class, molSimplify
Fe 	0.000000	0.000000	0.000000
B 	0.000000	2.100000	0.000000
C 	-1.044178	2.937779	-0.876253
C 	-1.895090	3.620493	-1.590320
N 	1.044178	2.837816	0.876253
O 	1.938256	2.120468	1.626544
O 	1.069991	4.063503	0.897914
H 	-2.593384	4.180757	-2.176314
O 	2.080000	0.000000	0.000000
H 	2.715106	0.767543	0.086704
H 	2.665511	-0.767543	-0.086704
O 	-0.000000	-2.080000	0.000000
H 	0.764049	-2.715106	0.113438
H 	-0.764049	-2.665511	-0.113438
O 	-2.080000	0.000000	0.000000
H 	-2.715106	-0.759625	0.140034
H 	-2.665511	0.759625	-0.140034
O 	0.000000	0.000000	2.080000
H 	0.166460	-0.754275	2.715106
H 	-0.166460	0.754275	2.665511
O 	0.000000	-0.000000	-2.080000
H 	-0.579178	-0.511071	-2.715106
H 	0.579178	0.511071	-2.665511
