30
06/06/2024 01:05, XYZ structure generated by mol3D Class, molSimplify
Fe 	0.000000	0.000000	0.000000
B 	0.000000	2.100000	-0.000000
C 	-1.342709	2.900000	-0.342247
C 	-2.579400	2.465737	0.105611
C 	-3.671336	3.000349	-0.618209
C 	-3.605668	4.067864	-1.392880
C 	-2.352942	4.487720	-1.744799
C 	-1.234263	3.925539	-1.178757
C 	1.342709	2.900000	0.342247
N 	2.400903	3.530483	0.611972
H 	-2.698216	1.787520	0.924638
H 	-4.615978	2.505269	-0.531909
H 	-4.485493	4.576849	-1.727159
H 	-2.242158	5.265273	-2.471462
H 	-0.266939	4.317680	-1.414151
O 	2.080000	0.000000	-0.000000
H 	2.715106	0.199186	0.746301
H 	2.665511	-0.199186	-0.746301
O 	0.000000	-2.080000	0.000000
H 	0.173019	-2.715106	0.752798
H 	-0.173019	-2.665511	-0.752798
O 	-2.080000	0.000000	0.000000
H 	-2.715106	0.420057	-0.648222
H 	-2.665511	-0.420057	0.648222
O 	0.000000	0.000000	2.080000
H 	-0.662487	0.397178	2.715106
H 	0.662487	-0.397178	2.665511
O 	0.000000	0.000000	-2.080000
H 	0.675945	0.373816	-2.715106
H 	-0.675945	-0.373816	-2.665511
