28
06/05/2024 23:02, XYZ structure generated by mol3D Class, molSimplify
Fe 	0.000000	0.000000	0.000000
B 	0.000000	2.100000	0.000000
N 	-1.334979	2.875000	0.140376
C 	-1.537941	3.720125	-1.045149
N 	1.334979	2.875000	-0.140376
N 	2.408375	1.952243	-0.253247
H 	-2.106007	2.212171	0.221452
H 	-1.572933	3.104968	-1.919939
H 	-2.459509	4.255123	-0.948245
H 	-0.729116	4.415444	-1.130195
H 	1.301618	3.461412	-0.974288
H 	3.286877	2.462243	-0.345626
H 	2.441732	1.365833	0.580667
O 	2.080000	-0.000000	0.000000
H 	2.715106	-0.144076	0.758869
H 	2.665511	0.144076	-0.758869
O 	-0.000000	-2.080000	0.000000
H 	-0.170472	-2.715106	0.753378
H 	0.170472	-2.665511	-0.753378
O 	-2.080000	0.000000	0.000000
H 	-2.715106	0.196661	0.746970
H 	-2.665511	-0.196661	-0.746970
O 	0.000000	0.000000	2.080000
H 	0.739652	0.222610	2.715106
H 	-0.739652	-0.222610	2.665511
O 	0.000000	-0.000000	-2.080000
H 	-0.731432	0.248288	-2.715106
H 	0.731432	-0.248288	-2.665511
