31
06/05/2024 23:29, XYZ structure generated by mol3D Class, molSimplify
Fe 	0.000000	0.000000	0.000000
B 	0.000000	2.100000	0.000000
N 	1.045578	2.637386	-1.010190
C 	2.037306	3.457253	-0.299421
C 	1.721676	1.507297	-1.663406
S 	-1.045578	3.307636	1.010190
O 	-1.990857	2.523652	1.923477
O 	-0.128007	4.188577	1.861239
O 	-1.960614	4.291927	-0.047155
H 	2.529519	2.860481	0.439829
H 	2.759094	3.828220	-0.996777
H 	1.545175	4.279833	0.176047
H 	2.213886	0.910521	-0.924157
H 	0.999806	0.910523	-2.180768
H 	2.443462	1.878267	-2.360763
H 	-2.513830	4.930888	0.487337
O 	2.080000	0.000000	-0.000000
H 	2.715106	-0.715768	-0.290371
H 	2.665511	0.715768	0.290371
O 	-0.000000	-2.080000	0.000000
H 	-0.705199	-2.715106	-0.315174
H 	0.705199	-2.665511	0.315174
O 	-2.080000	0.000000	0.000000
H 	-2.715106	0.693770	-0.339593
H 	-2.665511	-0.693770	0.339593
O 	0.000000	0.000000	2.080000
H 	-0.363599	0.681495	2.715106
H 	0.363599	-0.681495	2.665511
O 	0.000000	-0.000000	-2.080000
H 	0.706807	-0.311549	-2.715106
H 	-0.706807	0.311549	-2.665511
