23
06/06/2024 00:35, XYZ structure generated by mol3D Class, molSimplify
Fe 	0.000000	0.000000	0.000000
B 	0.000000	2.100000	0.000000
C 	-1.383916	2.900000	-0.069117
O 	-1.383916	4.170900	-0.069117
C 	1.383916	2.900000	0.069117
O 	2.483177	2.264550	0.124018
H 	-2.309409	2.365000	-0.115339
H 	1.383916	3.970000	0.069117
O 	2.080000	0.000000	-0.000000
H 	2.715106	-0.277855	-0.720719
H 	2.665511	0.277855	0.720719
O 	0.000000	-2.080000	0.000000
H 	-0.252533	-2.715106	-0.729977
H 	0.252533	-2.665511	0.729977
O 	-2.080000	0.000000	0.000000
H 	-2.715106	0.226903	-0.738346
H 	-2.665511	-0.226903	0.738346
O 	0.000000	0.000000	2.080000
H 	-0.745815	0.200997	2.715106
H 	0.745815	-0.200997	2.665511
O 	0.000000	0.000000	-2.080000
H 	0.708666	0.307298	-2.715106
H 	-0.708666	-0.307298	-2.665511
