21
06/06/2024 00:38, XYZ structure generated by mol3D Class, molSimplify
Fe 	0.000000	0.000000	0.000000
B 	0.000000	2.100000	-0.000000
F 	-1.134739	2.668110	-0.614588
C 	1.134739	3.045859	0.614588
O 	2.157533	2.533794	1.168546
H 	1.032482	4.109520	0.559205
O 	2.080000	-0.000000	0.000000
H 	2.715106	-0.720275	0.279004
H 	2.665511	0.720275	-0.279004
O 	-0.000000	-2.080000	0.000000
H 	-0.729574	-2.715106	0.253697
H 	0.729574	-2.665511	-0.253697
O 	-2.080000	0.000000	0.000000
H 	-2.715106	0.737983	0.228080
H 	-2.665511	-0.737983	-0.228080
O 	0.000000	0.000000	2.080000
H 	0.202186	0.745494	2.715106
H 	-0.202186	-0.745494	2.665511
O 	0.000000	-0.000000	-2.080000
H 	-0.176046	0.752096	-2.715106
H 	0.176046	-0.752096	-2.665511
