21
06/05/2024 23:10, XYZ structure generated by mol3D Class, molSimplify
Fe 	0.000000	0.000000	0.000000
B 	0.000000	2.100000	0.000000
C 	0.501122	2.900000	-1.291850
N 	0.896058	3.530483	-2.309962
C 	-0.501122	2.900000	1.291850
N 	-0.896058	3.530483	2.309962
O 	2.080000	-0.000000	-0.000000
H 	2.715106	0.027427	-0.771938
H 	2.665511	-0.027427	0.771938
O 	-0.000000	-2.080000	0.000000
H 	0.054351	-2.715106	-0.770510
H 	-0.054351	-2.665511	0.770510
O 	-2.080000	0.000000	0.000000
H 	-2.715106	-0.081208	-0.768144
H 	-2.665511	0.081208	0.768144
O 	0.000000	0.000000	2.080000
H 	-0.764842	-0.107966	2.715106
H 	0.764842	0.107966	2.665511
O 	0.000000	-0.000000	-2.080000
H 	0.766626	-0.094468	-2.715106
H 	-0.766626	0.094468	-2.665511
