25
06/05/2024 23:39, XYZ structure generated by mol3D Class, molSimplify
Fe 	0.000000	0.000000	0.000000
B 	-0.000000	2.100000	0.000000
O 	-1.329438	2.776364	0.158515
C 	-2.348372	1.794829	0.280008
F 	-2.364736	1.035310	-0.811672
F 	-2.107594	1.035313	1.344931
F 	-3.527140	2.394539	0.420558
C 	1.329438	2.976053	-0.158515
O 	2.455826	2.402992	-0.292820
Cl 	1.230838	4.753281	-0.146759
O 	2.080000	0.000000	0.000000
H 	2.715106	-0.520806	-0.570440
H 	2.665511	0.520806	0.570440
O 	0.000000	-2.080000	0.000000
H 	-0.500580	-2.715106	-0.588268
H 	0.500580	-2.665511	0.588268
O 	-2.080000	0.000000	0.000000
H 	-2.715106	0.155374	0.756637
H 	-2.665511	-0.155374	-0.756637
O 	0.000000	0.000000	2.080000
H 	0.750753	0.181685	2.715106
H 	-0.750753	-0.181685	2.665511
O 	0.000000	0.000000	-2.080000
H 	-0.761634	0.128662	-2.715106
H 	0.761634	-0.128662	-2.665511
