26
06/06/2024 00:52, XYZ structure generated by mol3D Class, molSimplify
Fe 	0.000000	0.000000	0.000000
B 	0.000000	2.100000	0.000000
C 	-0.639477	2.900000	-1.229256
O 	-0.639477	4.170900	-1.229256
C 	0.639477	2.900000	1.229256
O 	1.147421	2.264550	2.205669
C 	0.639477	4.420000	1.229256
H 	-1.067127	2.365000	-2.051320
H 	1.181742	4.776669	0.378588
H 	-0.368356	4.776668	1.184973
H 	1.105044	4.776663	2.124207
O 	2.080000	0.000000	0.000000
H 	2.715106	0.007285	-0.772390
H 	2.665511	-0.007285	0.772390
O 	0.000000	-2.080000	0.000000
H 	0.034236	-2.715106	-0.771666
H 	-0.034236	-2.665511	0.771666
O 	-2.080000	0.000000	0.000000
H 	-2.715106	-0.061146	-0.770001
H 	-2.665511	0.061146	0.770001
O 	0.000000	0.000000	2.080000
H 	-0.767398	-0.087982	2.715106
H 	0.767398	0.087982	2.665511
O 	0.000000	0.000000	-2.080000
H 	0.768829	-0.074441	-2.715106
H 	-0.768829	0.074441	-2.665511
