29
06/05/2024 23:02, XYZ structure generated by mol3D Class, molSimplify
Fe 	0.000000	0.000000	0.000000
B 	0.000000	2.100000	0.000000
O 	0.297980	2.850000	-1.264400
C 	0.580067	2.140000	-2.461366
O 	0.580067	0.869100	-2.461366
C 	0.882020	2.900000	-3.742625
O 	-0.297980	2.850000	1.264400
C 	-0.545557	1.927237	2.314931
F 	-1.586378	1.162598	1.997256
F 	0.527589	1.162601	2.495453
F 	-0.809766	2.592237	3.436032
H 	0.044668	3.515161	-3.998198
H 	1.745378	3.515159	-3.597393
H 	1.068575	2.204679	-4.534222
O 	2.080000	0.000000	0.000000
H 	2.715106	-0.555769	-0.536433
H 	2.665511	0.555769	0.536433
O 	0.000000	-2.080000	0.000000
H 	-0.536709	-2.715106	-0.555503
H 	0.536709	-2.665511	0.555503
O 	-2.080000	0.000000	0.000000
H 	-2.715106	0.516995	-0.573895
H 	-2.665511	-0.516995	0.573895
O 	0.000000	0.000000	2.080000
H 	-0.608561	0.475703	2.715106
H 	0.608561	-0.475703	2.665511
O 	0.000000	-0.000000	-2.080000
H 	0.742555	-0.212725	-2.715106
H 	-0.742555	0.212725	-2.665511
