28
06/06/2024 00:13, XYZ structure generated by mol3D Class, molSimplify
Fe 	0.000000	0.000000	0.000000
B 	0.000000	2.100000	0.000000
C 	-1.485273	2.694448	-0.024404
O 	-1.666296	3.952386	-0.027378
N 	-2.640485	1.785589	-0.043385
S 	1.485273	3.268533	0.024404
O 	2.778178	2.449860	0.045647
O 	1.460712	4.150986	-1.225776
N 	1.409802	4.283344	1.460393
H 	-2.495200	0.775992	-0.040998
H 	-3.587347	2.164550	-0.058943
H 	1.426171	3.695214	2.293601
H 	2.211378	4.913980	1.473563
O 	2.080000	-0.000000	0.000000
H 	2.715106	-0.443580	-0.632358
H 	2.665511	0.443580	0.632358
O 	-0.000000	-2.080000	0.000000
H 	-0.421241	-2.715106	-0.647453
H 	0.421241	-2.665511	0.647453
O 	-2.080000	0.000000	0.000000
H 	-2.715106	0.252095	-0.730129
H 	-2.665511	-0.252095	0.730129
O 	0.000000	0.000000	2.080000
H 	-0.738482	0.226461	2.715106
H 	0.738482	-0.226461	2.665511
O 	0.000000	0.000000	-2.080000
H 	0.200550	-0.745935	-2.715106
H 	-0.200550	0.745935	-2.665511
