24
06/05/2024 22:51, XYZ structure generated by mol3D Class, molSimplify
Fe 	0.000000	0.000000	0.000000
B 	0.000000	2.100000	0.000000
N 	0.211079	2.875000	-1.325640
O 	1.327175	3.662633	-1.221415
N 	-0.211079	2.875000	1.325640
C 	-0.390243	2.217175	2.450851
O 	-0.563314	1.581725	3.537790
H 	0.332989	2.212171	-2.091274
H 	1.207651	4.312464	-0.470793
O 	2.080000	0.000000	0.000000
H 	2.715106	-0.300038	0.711770
H 	2.665511	0.300038	-0.711770
O 	0.000000	-2.080000	0.000000
H 	-0.324696	-2.715106	0.700866
H 	0.324696	-2.665511	-0.700866
O 	-2.080000	0.000000	0.000000
H 	-2.715106	0.348958	0.689107
H 	-2.665511	-0.348958	-0.689107
O 	0.000000	0.000000	2.080000
H 	0.730966	0.249657	2.715106
H 	-0.730966	-0.249657	2.665511
O 	0.000000	0.000000	-2.080000
H 	-0.764545	0.110052	-2.715106
H 	0.764545	-0.110052	-2.665511
