30
06/05/2024 23:56, XYZ structure generated by mol3D Class, molSimplify
Fe 	0.000000	0.000000	0.000000
B 	0.000000	2.100000	0.000000
S 	-1.467787	3.268533	0.228543
C 	-2.978845	2.300314	0.463824
C 	1.467787	2.694448	-0.228543
O 	2.454777	1.908687	-0.382223
N 	1.674705	4.149456	-0.260761
C 	0.533092	5.058314	-0.083006
H 	-3.144412	1.683352	-0.394573
H 	-2.875586	1.683354	1.331924
H 	-3.809815	2.961864	0.593211
H 	2.610419	4.528416	-0.406458
H 	0.698659	5.675276	0.775392
H 	0.429833	5.675274	-0.951106
H 	-0.360185	4.485942	0.056083
O 	2.080000	0.000000	0.000000
H 	2.715106	-0.269234	-0.723984
H 	2.665511	0.269234	0.723984
O 	-0.000000	-2.080000	0.000000
H 	-0.243804	-2.715106	-0.732939
H 	0.243804	-2.665511	0.732939
O 	-2.080000	0.000000	0.000000
H 	-2.715106	-0.005380	0.772406
H 	-2.665511	0.005380	-0.772406
O 	0.000000	0.000000	2.080000
H 	0.772123	0.021580	2.715106
H 	-0.772123	-0.021580	2.665511
O 	0.000000	-0.000000	-2.080000
H 	-0.771992	-0.025840	-2.715106
H 	0.771992	0.025840	-2.665511
