37
06/05/2024 23:39, XYZ structure generated by mol3D Class, molSimplify
Fe 	0.000000	0.000000	0.000000
B 	0.000000	2.100000	0.000000
N 	1.418648	2.637386	-0.318050
C 	1.660682	4.086308	-0.372312
O 	2.823881	4.526930	-0.633092
C 	0.519759	5.057528	-0.116526
S 	-1.418648	3.307636	0.318050
C 	-2.935476	2.380441	0.658111
C 	-3.084010	1.226806	-0.093974
C 	-4.354553	0.617695	0.035472
C 	-5.205614	0.861390	1.015433
C 	-4.965568	1.979103	1.765464
C 	-3.807619	2.701457	1.606560
H 	2.184267	1.985646	-0.489695
H 	-0.253568	4.897418	-0.838488
H 	0.128677	4.897419	0.866490
H 	0.881020	6.061436	-0.197518
H 	-2.308322	0.832063	-0.716376
H 	-4.646076	-0.089560	-0.712662
H 	-6.038240	0.218712	1.211902
H 	-5.689883	2.295826	2.486542
H 	-3.606825	3.530178	2.252937
O 	2.080000	-0.000000	0.000000
H 	2.715106	-0.372177	-0.676849
H 	2.665511	0.372177	0.676849
O 	-0.000000	-2.080000	0.000000
H 	-0.348328	-2.715106	-0.689425
H 	0.348328	-2.665511	0.689425
O 	-2.080000	0.000000	0.000000
H 	-2.715106	-0.228349	-0.737900
H 	-2.665511	0.228349	0.737900
O 	0.000000	0.000000	2.080000
H 	-0.729481	-0.253962	2.715106
H 	0.729481	0.253962	2.665511
O 	0.000000	-0.000000	-2.080000
H 	0.026447	-0.771972	-2.715106
H 	-0.026447	0.771972	-2.665511
