32
06/05/2024 23:34, XYZ structure generated by mol3D Class, molSimplify
Fe 	0.000000	0.000000	0.000000
B 	0.000000	2.100000	-0.000000
S 	-1.258345	0.892364	0.728206
C 	-2.603777	1.819559	1.506809
C 	-2.869178	1.630694	2.853084
C 	-4.105197	2.174605	3.275541
C 	-4.793360	3.080270	2.604559
C 	-4.437936	3.268963	1.297839
C 	-3.317534	2.668322	0.776471
N 	1.258345	1.562614	-0.728206
O 	2.170479	2.437990	-1.256059
O 	1.437418	0.354046	-0.831835
H 	-2.200194	1.119831	3.513674
H 	-4.510511	1.828018	4.203171
H 	-5.586422	3.636483	3.059070
H 	-5.040973	3.893361	0.672240
H 	-3.017452	2.886489	-0.227149
O 	2.080000	0.000000	0.000000
H 	2.715106	0.498081	-0.590386
H 	2.665511	-0.498081	0.590386
O 	0.000000	-2.080000	0.000000
H 	0.518382	-2.715106	-0.572643
H 	-0.518382	-2.665511	0.572643
O 	-2.080000	0.000000	0.000000
H 	-2.715106	-0.538051	-0.554203
H 	-2.665511	0.538051	0.554203
O 	0.000000	0.000000	2.080000
H 	-0.535088	-0.557064	2.715106
H 	0.535088	0.557064	2.665511
O 	0.000000	0.000000	-2.080000
H 	-0.693375	-0.340398	-2.715106
H 	0.693375	0.340398	-2.665511
