36
06/06/2024 00:09, XYZ structure generated by mol3D Class, molSimplify
Fe 	0.000000	0.000000	0.000000
B 	-0.000000	2.100000	0.000000
O 	-0.927930	1.350000	-0.909091
C 	-1.806371	2.060000	-1.769696
C 	-3.128821	1.660581	-1.870465
C 	-3.822278	2.242844	-2.957726
C 	-3.423453	3.319543	-3.610163
C 	-2.125413	3.702525	-3.415571
C 	-1.344486	3.094282	-2.462635
O 	0.927930	1.350000	0.909091
C 	1.806371	2.060000	1.769696
O 	1.806371	3.330900	1.769696
C 	2.746673	1.300000	2.690908
F 	2.037042	0.535360	3.515923
F 	3.556962	0.535363	1.964504
F 	3.468782	2.164278	3.398356
H 	-3.584648	0.974004	-1.188018
H 	-4.733171	1.778495	-3.273249
H 	-4.080773	3.862974	-4.256316
H 	-1.711787	4.487194	-4.013992
H 	-0.355184	3.457334	-2.277230
O 	2.080000	0.000000	0.000000
H 	2.715106	0.771952	0.027009
H 	2.665511	-0.771952	-0.027009
O 	-0.000000	-2.080000	0.000000
H 	0.770539	-2.715106	0.053933
H 	-0.770539	-2.665511	-0.053933
O 	-2.080000	0.000000	0.000000
H 	-2.715106	-0.608711	-0.475512
H 	-2.665511	0.608711	0.475512
O 	0.000000	0.000000	2.080000
H 	-0.134079	-0.760699	2.715106
H 	0.134079	0.760699	2.665511
O 	0.000000	0.000000	-2.080000
H 	-0.264497	-0.725728	-2.715106
H 	0.264497	0.725728	-2.665511
