31
06/06/2024 01:43, XYZ structure generated by mol3D Class, molSimplify
Fe 	0.000000	0.000000	0.000000
B 	0.000000	2.100000	0.000000
O 	1.412272	2.581681	-0.153204
C 	2.473344	1.645050	-0.268309
O 	2.226433	0.398654	-0.241524
C 	3.904446	2.133154	-0.423555
F 	4.004580	2.869282	-1.526727
F 	4.238811	2.869279	0.632484
F 	4.722163	1.087988	-0.512261
S 	-1.412272	3.346642	0.153204
O 	-2.739674	2.598614	0.297200
O 	-1.185609	4.225399	1.385554
C 	-1.462964	4.385911	-1.327827
F 	-0.309418	5.035966	-1.452964
F 	-1.659940	3.622248	-2.398771
F 	-2.456785	5.263177	-1.220017
O 	2.080000	-0.000000	0.000000
H 	2.715106	-0.708825	0.306932
H 	2.665511	0.708825	-0.306932
O 	-0.000000	-2.080000	0.000000
H 	-0.719105	-2.715106	0.282008
H 	0.719105	-2.665511	-0.282008
O 	-2.080000	0.000000	0.000000
H 	-2.715106	0.635913	-0.438468
H 	-2.665511	-0.635913	0.438468
O 	0.000000	0.000000	2.080000
H 	-0.460394	0.620224	2.715106
H 	0.460394	-0.620224	2.665511
O 	0.000000	-0.000000	-2.080000
H 	0.603778	-0.481759	-2.715106
H 	-0.603778	0.481759	-2.665511
