21
06/05/2024 23:09, XYZ structure generated by mol3D Class, molSimplify
Fe 	0.000000	0.000000	0.000000
B 	0.000000	2.100000	0.000000
Cl 	-0.747615	3.269231	-1.238375
N 	0.747615	2.656776	1.238375
C 	1.276431	1.829734	2.114325
S 	1.927560	0.811404	3.192877
O 	2.080000	0.000000	0.000000
H 	2.715106	-0.231680	-0.736861
H 	2.665511	0.231680	0.736861
O 	0.000000	-2.080000	0.000000
H 	-0.205823	-2.715106	-0.744498
H 	0.205823	-2.665511	0.744498
O 	-2.080000	0.000000	0.000000
H 	-2.715106	0.179715	-0.751227
H 	-2.665511	-0.179715	0.751227
O 	0.000000	0.000000	2.080000
H 	0.369115	-0.678523	2.715106
H 	-0.369115	0.678523	2.665511
O 	0.000000	-0.000000	-2.080000
H 	0.653545	0.411726	-2.715106
H 	-0.653545	-0.411726	-2.665511
