36
06/06/2024 03:33, XYZ structure generated by mol3D Class, molSimplify
Fe 	0.000000	0.000000	0.000000
B 	0.000000	2.100000	-0.000000
S 	0.627647	3.268533	1.346362
C 	1.273797	2.300314	2.732415
C 	2.233254	2.857978	3.561280
C 	2.867201	1.923673	4.414062
C 	2.392525	0.723762	4.694979
C 	1.398472	0.257019	3.880449
C 	0.819335	1.069292	2.935617
C 	-0.627647	2.694448	-1.346362
O 	-1.049698	1.908687	-2.251702
O 	-0.713118	4.099965	-1.529706
C 	-1.270155	4.627538	-2.724602
H 	2.473255	3.900706	3.557068
H 	3.795776	2.209196	4.862531
H 	2.765774	0.147801	5.515864
H 	1.066775	-0.755364	3.980235
H 	-0.005350	0.706598	2.358341
H 	-0.697416	4.291752	-3.563720
H 	-2.281085	4.291753	-2.825443
H 	-1.251704	5.696647	-2.685023
O 	2.080000	-0.000000	0.000000
H 	2.715106	-0.566933	-0.524620
H 	2.665511	0.566933	0.524620
O 	-0.000000	-2.080000	0.000000
H 	-0.548279	-2.715106	-0.544087
H 	0.548279	-2.665511	0.544087
O 	-2.080000	0.000000	0.000000
H 	-2.715106	0.528956	-0.562890
H 	-2.665511	-0.528956	0.562890
O 	0.000000	0.000000	2.080000
H 	-0.631028	0.445470	2.715106
H 	0.631028	-0.445470	2.665511
O 	0.000000	0.000000	-2.080000
H 	-0.504515	-0.584897	-2.715106
H 	0.504515	0.584897	-2.665511
