31
06/06/2024 01:29, XYZ structure generated by mol3D Class, molSimplify
Fe 	0.000000	0.000000	0.000000
B 	0.000000	2.100000	0.000000
C 	-0.236621	3.045859	-1.268606
C 	-1.453914	3.923307	-1.026366
C 	0.986151	3.923304	-1.481488
C 	-0.466886	2.189529	-2.503142
F 	0.236621	2.668110	1.268606
H 	-1.291819	4.526119	-0.157319
H 	-1.612154	4.555848	-1.874748
H 	-2.314681	3.305631	-0.876509
H 	1.843065	3.305631	-1.652012
H 	0.827913	4.555845	-2.329870
H 	1.148242	4.526113	-0.612438
H 	0.390024	1.571851	-2.673666
H 	-1.327653	1.571854	-2.353284
H 	-0.625126	2.822072	-3.351522
O 	2.080000	-0.000000	0.000000
H 	2.715106	0.722223	-0.273922
H 	2.665511	-0.722223	0.273922
O 	-0.000000	-2.080000	0.000000
H 	0.731343	-2.715106	-0.248550
H 	-0.731343	-2.665511	0.248550
O 	-2.080000	0.000000	0.000000
H 	-2.715106	-0.739572	-0.222875
H 	-2.665511	0.739572	0.222875
O 	0.000000	0.000000	2.080000
H 	-0.196929	-0.746900	2.715106
H 	0.196929	0.746900	2.665511
O 	0.000000	-0.000000	-2.080000
H 	-0.771198	0.043514	-2.715106
H 	0.771198	-0.043514	-2.665511
