26
06/06/2024 03:19, XYZ structure generated by mol3D Class, molSimplify
Fe 	0.000000	0.000000	0.000000
B 	0.000000	2.100000	-0.000000
Cl 	-1.394713	0.891701	-0.233217
O 	1.394713	1.599615	0.233217
S 	2.455149	2.929326	0.410538
O 	2.424273	3.779644	-0.861580
O 	2.012091	3.779641	1.603408
C 	4.138103	2.325528	0.691953
H 	4.159690	1.731036	1.581342
H 	4.447863	1.731038	-0.142032
H 	4.801651	3.157570	0.802908
O 	2.080000	-0.000000	0.000000
H 	2.715106	-0.451692	-0.626589
H 	2.665511	0.451692	0.626589
O 	0.000000	-2.080000	0.000000
H 	-0.429550	-2.715106	-0.641971
H 	0.429550	-2.665511	0.641971
O 	-2.080000	0.000000	0.000000
H 	-2.715106	0.406883	-0.656571
H 	-2.665511	-0.406883	0.656571
O 	0.000000	0.000000	2.080000
H 	-0.670371	0.383722	2.715106
H 	0.670371	-0.383722	2.665511
O 	0.000000	0.000000	-2.080000
H 	-0.205784	0.744508	-2.715106
H 	0.205784	-0.744508	-2.665511
