26
06/06/2024 01:52, XYZ structure generated by mol3D Class, molSimplify
Fe 	0.000000	0.000000	0.000000
B 	0.000000	2.100000	0.000000
N 	-0.530045	2.837816	1.255858
C 	-0.545754	4.307261	1.293078
O 	-0.980356	4.912223	2.322801
N 	-0.058775	5.076970	0.139258
C 	0.530045	2.937779	-1.255858
N 	0.947775	3.598035	-2.245604
H 	-0.867948	2.303733	2.056468
H 	0.290029	4.591440	-0.687177
H 	-0.069675	6.096585	0.165085
O 	2.080000	-0.000000	0.000000
H 	2.715106	-0.188821	0.748990
H 	2.665511	0.188821	-0.748990
O 	-0.000000	-2.080000	0.000000
H 	-0.214845	-2.715106	0.741944
H 	0.214845	-2.665511	-0.741944
O 	-2.080000	0.000000	0.000000
H 	-2.715106	0.240608	0.733994
H 	-2.665511	-0.240608	-0.733994
O 	0.000000	0.000000	2.080000
H 	0.725150	0.266078	2.715106
H 	-0.725150	-0.266078	2.665511
O 	0.000000	-0.000000	-2.080000
H 	-0.715422	0.291223	-2.715106
H 	0.715422	-0.291223	-2.665511
