30
06/05/2024 23:58, XYZ structure generated by mol3D Class, molSimplify
Fe 	0.000000	0.000000	0.000000
B 	0.000000	2.100000	0.000000
O 	-0.208644	1.387173	1.303206
C 	-0.375059	2.340197	2.342652
N 	0.208644	1.287213	-1.303206
C 	0.413114	1.985784	-2.580347
O 	0.584189	1.319351	-3.648892
C 	0.419935	3.505171	-2.622947
H 	0.499322	2.953502	2.407578
H 	-1.226007	2.953500	2.131352
H 	-0.523892	1.831714	3.272272
H 	0.204067	0.267624	-1.274619
H 	-0.520836	3.876013	-2.273195
H 	1.204493	3.876012	-1.996971
H 	0.580950	3.833058	-3.628662
O 	2.080000	0.000000	-0.000000
H 	2.715106	0.053916	-0.770541
H 	2.665511	-0.053916	0.770541
O 	-0.000000	-2.080000	0.000000
H 	0.080775	-2.715106	-0.768190
H 	-0.080775	-2.665511	0.768190
O 	-2.080000	0.000000	0.000000
H 	-2.715106	-0.107535	-0.764903
H 	-2.665511	0.107535	0.764903
O 	0.000000	0.000000	2.080000
H 	-0.760684	-0.134164	2.715106
H 	0.760684	0.134164	2.665511
O 	0.000000	-0.000000	-2.080000
H 	0.755538	-0.160630	-2.715106
H 	-0.755538	0.160630	-2.665511
