23
06/06/2024 02:28, XYZ structure generated by mol3D Class, molSimplify
Fe 	0.000000	0.000000	0.000000
B 	0.000000	2.100000	0.000000
C 	-1.175011	3.045859	0.533573
C 	-1.040387	4.398200	0.472440
F 	1.175011	2.668110	-0.533573
H 	-2.066686	2.614740	0.938484
H 	-1.826176	5.030743	0.829267
H 	-0.148712	4.829319	0.067530
O 	2.080000	0.000000	0.000000
H 	2.715106	0.466086	-0.615957
H 	2.665511	-0.466086	0.615957
O 	0.000000	-2.080000	0.000000
H 	0.487299	-2.715106	-0.599316
H 	-0.487299	-2.665511	0.599316
O 	-2.080000	0.000000	0.000000
H 	-2.715106	-0.507918	-0.581944
H 	-2.665511	0.507918	0.581944
O 	0.000000	0.000000	2.080000
H 	-0.563864	-0.527918	2.715106
H 	0.563864	0.527918	2.665511
O 	0.000000	-0.000000	-2.080000
H 	0.769184	-0.070685	-2.715106
H 	-0.769184	0.070685	-2.665511
