31
06/06/2024 00:21, XYZ structure generated by mol3D Class, molSimplify
Fe 	0.000000	0.000000	0.000000
B 	0.000000	2.100000	0.000000
S 	-1.020582	0.931467	-1.079372
C 	-2.071251	1.899686	-2.190563
C 	-2.269258	3.247120	-1.938016
C 	-3.323764	3.821717	-2.686285
C 	-3.849025	3.286466	-3.773310
C 	-3.560436	1.969926	-4.003289
C 	-2.638147	1.303668	-3.232980
C 	1.020582	1.505552	1.079372
N 	1.824907	1.037065	1.930029
H 	-1.678388	3.803050	-1.240366
H 	-3.723410	4.754805	-2.347862
H 	-4.467200	3.852629	-4.438305
H 	-4.060009	1.451012	-4.794525
H 	-2.374332	0.295407	-3.475283
O 	2.080000	-0.000000	0.000000
H 	2.715106	0.677582	-0.370840
H 	2.665511	-0.677582	0.370840
O 	0.000000	-2.080000	0.000000
H 	0.690112	-2.715106	-0.346967
H 	-0.690112	-2.665511	0.346967
O 	-2.080000	0.000000	0.000000
H 	-2.715106	-0.701800	-0.322671
H 	-2.665511	0.701800	0.322671
O 	0.000000	0.000000	2.080000
H 	0.098257	-0.766150	2.715106
H 	-0.098257	0.766150	2.665511
O 	0.000000	-0.000000	-2.080000
H 	-0.124936	-0.762254	-2.715106
H 	0.124936	0.762254	-2.665511
