28
06/06/2024 03:19, XYZ structure generated by mol3D Class, molSimplify
Fe 	0.000000	0.000000	0.000000
B 	0.000000	2.100000	0.000000
N 	-1.060981	2.637386	-0.994000
C 	-1.241994	4.086308	-1.163586
O 	-2.111930	4.526930	-1.978602
C 	-0.388718	5.057528	-0.364178
S 	1.060981	3.307636	0.994000
C 	2.195389	2.380441	2.056792
N 	2.985693	1.734495	2.797204
H 	-1.633574	1.985646	-1.530445
H 	-0.550608	4.897418	0.681315
H 	0.644013	4.897419	-0.593809
H 	-0.658899	6.061436	-0.617302
O 	2.080000	-0.000000	0.000000
H 	2.715106	0.334447	0.696265
H 	2.665511	-0.334447	-0.696265
O 	-0.000000	-2.080000	0.000000
H 	0.309944	-2.715106	0.707513
H 	-0.309944	-2.665511	-0.707513
O 	-2.080000	0.000000	0.000000
H 	-2.715106	-0.285063	0.717899
H 	-2.665511	0.285063	-0.717899
O 	0.000000	0.000000	2.080000
H 	0.727410	-0.259835	2.715106
H 	-0.727410	0.259835	2.665511
O 	0.000000	0.000000	-2.080000
H 	-0.771438	0.039033	-2.715106
H 	0.771438	-0.039033	-2.665511
