24
06/05/2024 23:22, XYZ structure generated by mol3D Class, molSimplify
Fe 	0.000000	0.000000	0.000000
B 	0.000000	2.100000	0.000000
N 	-1.222535	2.637386	-0.786845
C 	-2.073554	1.796737	-1.334577
S 	1.222535	3.307636	0.786845
C 	2.529677	2.380441	1.628146
N 	3.440320	1.734495	2.214252
H 	-1.921734	0.742080	-1.236863
H 	-2.917498	2.167707	-1.877754
O 	2.080000	-0.000000	0.000000
H 	2.715106	0.735803	0.235020
H 	2.665511	-0.735803	-0.235020
O 	-0.000000	-2.080000	0.000000
H 	0.727152	-2.715106	0.260556
H 	-0.727152	-2.665511	-0.260556
O 	-2.080000	0.000000	0.000000
H 	-2.715106	0.382866	0.670860
H 	-2.665511	-0.382866	-0.670860
O 	0.000000	0.000000	2.080000
H 	0.657090	0.406046	2.715106
H 	-0.657090	-0.406046	2.665511
O 	0.000000	-0.000000	-2.080000
H 	-0.457135	0.622629	-2.715106
H 	0.457135	-0.622629	-2.665511
