29
06/06/2024 01:34, XYZ structure generated by mol3D Class, molSimplify
Fe 	0.000000	0.000000	0.000000
B 	0.000000	2.100000	0.000000
N 	-0.546845	2.637386	-1.347099
C 	0.482758	3.457253	-2.001803
S 	0.546845	3.307636	1.347099
O 	1.041234	2.523652	2.564977
O 	1.678903	4.188577	0.813560
N 	-0.814319	4.320708	1.814557
H 	-0.792203	1.853243	-1.951516
H 	1.352311	2.860481	-2.182468
H 	0.105259	3.828220	-2.931737
H 	0.740140	4.279833	-1.367755
H 	-1.568803	3.733586	2.170145
H 	-0.519197	4.972447	2.541563
O 	2.080000	0.000000	0.000000
H 	2.715106	-0.709528	0.305303
H 	2.665511	0.709528	-0.305303
O 	-0.000000	-2.080000	0.000000
H 	-0.719751	-2.715106	0.280355
H 	0.719751	-2.665511	-0.280355
O 	-2.080000	0.000000	0.000000
H 	-2.715106	0.729096	0.255065
H 	-2.665511	-0.729096	-0.255065
O 	0.000000	0.000000	2.080000
H 	-0.090363	0.767121	2.715106
H 	0.090363	-0.767121	2.665511
O 	0.000000	-0.000000	-2.080000
H 	0.562318	0.529564	-2.715106
H 	-0.562318	-0.529564	-2.665511
