33
06/06/2024 02:10, XYZ structure generated by mol3D Class, molSimplify
Fe 	0.000000	0.000000	0.000000
B 	0.000000	2.100000	0.000000
C 	-0.908974	2.900000	1.045833
C 	-0.025077	3.773874	1.920745
C 	-1.898515	3.773871	0.292468
C 	-1.666857	1.912254	1.917826
C 	0.908974	2.900000	-1.045833
C 	1.649706	3.551928	-1.898093
H 	0.508432	4.469195	1.306908
H 	-0.632954	4.308872	2.620146
H 	0.671507	3.158714	2.451074
H 	-2.520734	3.158714	-0.323426
H 	-2.506393	4.308868	0.991868
H 	-1.365001	4.469190	-0.321368
H 	-2.289073	1.297093	1.301934
H 	-0.970272	1.297095	2.448155
H 	-2.274733	2.447254	2.617227
H 	2.257582	4.086928	-2.597493
O 	2.080000	0.000000	0.000000
H 	2.715106	-0.743547	-0.209230
H 	2.665511	0.743547	0.209230
O 	-0.000000	-2.080000	0.000000
H 	-0.735793	-2.715106	-0.235051
H 	0.735793	-2.665511	0.235051
O 	-2.080000	0.000000	0.000000
H 	-2.715106	0.657072	-0.406074
H 	-2.665511	-0.657072	0.406074
O 	0.000000	0.000000	2.080000
H 	-0.695919	-0.335167	2.715106
H 	0.695919	0.335167	2.665511
O 	0.000000	0.000000	-2.080000
H 	-0.625081	-0.453778	-2.715106
H 	0.625081	0.453778	-2.665511
