32
06/05/2024 23:57, XYZ structure generated by mol3D Class, molSimplify
Fe 	0.000000	0.000000	0.000000
B 	0.000000	2.100000	0.000000
S 	-1.407620	1.155000	0.835272
C 	-2.590742	2.331197	1.537329
C 	-2.417115	2.775105	2.837853
C 	-3.542832	3.447872	3.369074
C 	-4.527966	3.946644	2.644675
C 	-4.605013	3.520870	1.347667
C 	-3.608719	2.752205	0.795900
S 	1.407620	1.155000	-0.835272
C 	2.590742	2.331197	-1.537329
N 	3.414983	3.150615	-2.026427
H 	-1.513667	2.623058	3.390633
H 	-3.599902	3.560330	4.431617
H 	-5.228192	4.646331	3.050903
H 	-5.453373	3.790137	0.753799
H 	-3.653554	2.490487	-0.240629
O 	2.080000	-0.000000	0.000000
H 	2.715106	0.472177	0.611301
H 	2.665511	-0.472177	-0.611301
O 	0.000000	-2.080000	0.000000
H 	0.450555	-2.715106	0.627407
H 	-0.450555	-2.665511	-0.627407
O 	-2.080000	0.000000	0.000000
H 	-2.715106	-0.428385	0.642749
H 	-2.665511	0.428385	-0.642749
O 	0.000000	0.000000	2.080000
H 	0.657308	-0.405692	2.715106
H 	-0.657308	0.405692	2.665511
O 	0.000000	0.000000	-2.080000
H 	-0.218997	-0.740730	-2.715106
H 	0.218997	0.740730	-2.665511
