26
06/06/2024 02:53, XYZ structure generated by mol3D Class, molSimplify
Fe 	0.000000	0.000000	0.000000
B 	0.000000	2.100000	0.000000
S 	-0.960785	3.268533	1.132927
O 	0.021419	4.150990	1.906761
O 	-1.884656	4.150987	0.290303
O 	-1.895248	2.353806	2.234814
C 	0.960785	2.694448	-1.132927
Cl 	1.720352	1.356815	-2.028582
Cl 	0.007004	3.693926	-2.255310
Cl 	2.223874	3.693928	-0.375267
H 	-2.403600	2.972077	2.834246
O 	2.080000	-0.000000	0.000000
H 	2.715106	0.748217	-0.191861
H 	2.665511	-0.748217	0.191861
O 	-0.000000	-2.080000	0.000000
H 	0.754457	-2.715106	-0.165632
H 	-0.754457	-2.665511	0.165632
O 	-2.080000	0.000000	0.000000
H 	-2.715106	-0.759778	-0.139201
H 	-2.665511	0.759778	0.139201
O 	0.000000	0.000000	2.080000
H 	-0.112600	-0.764173	2.715106
H 	0.112600	0.764173	2.665511
O 	0.000000	-0.000000	-2.080000
H 	-0.683602	0.359622	-2.715106
H 	0.683602	-0.359622	-2.665511
