30
06/06/2024 02:29, XYZ structure generated by mol3D Class, molSimplify
Fe 	0.000000	0.000000	0.000000
B 	0.000000	2.100000	0.000000
N 	1.084632	2.912787	0.751964
C 	0.445040	3.759782	1.769030
O 	-1.084632	2.812827	-0.751964
C 	-2.078295	2.068210	-1.440861
O 	-2.048650	0.797822	-1.420309
C 	-3.177388	2.790541	-2.202852
H 	1.736971	2.272229	1.204225
H 	-0.084943	3.143264	2.464676
H 	1.193786	4.320865	2.288130
H 	-0.239275	4.431737	1.294596
H 	-3.736068	3.403846	-1.527104
H 	-2.740533	3.403844	-2.963061
H 	-3.829268	2.072417	-2.654793
O 	2.080000	-0.000000	0.000000
H 	2.715106	0.762967	0.120504
H 	2.665511	-0.762967	-0.120504
O 	-0.000000	-2.080000	0.000000
H 	0.758297	-2.715106	0.147058
H 	-0.758297	-2.665511	-0.147058
O 	-2.080000	0.000000	0.000000
H 	-2.715106	0.485843	0.600497
H 	-2.665511	-0.485843	-0.600497
O 	0.000000	0.000000	2.080000
H 	0.583175	0.506504	2.715106
H 	-0.583175	-0.506504	2.665511
O 	0.000000	0.000000	-2.080000
H 	-0.420973	0.647628	-2.715106
H 	0.420973	-0.647628	-2.665511
