22
06/05/2024 23:50, XYZ structure generated by mol3D Class, molSimplify
Fe 	0.000000	0.000000	0.000000
B 	0.000000	2.100000	0.000000
S 	-1.267895	3.268533	0.773999
C 	1.267895	2.694448	-0.773999
C 	2.301115	3.178869	-1.404738
H 	-2.248652	2.541031	1.372712
H 	3.149020	3.576406	-1.922350
O 	2.080000	-0.000000	-0.000000
H 	2.715106	-0.251658	0.730280
H 	2.665511	0.251658	-0.730280
O 	-0.000000	-2.080000	0.000000
H 	-0.276991	-2.715106	0.721052
H 	0.276991	-2.665511	-0.721052
O 	-2.080000	0.000000	0.000000
H 	-2.715106	0.301986	0.710946
H 	-2.665511	-0.301986	-0.710946
O 	0.000000	0.000000	2.080000
H 	0.699974	0.326614	2.715106
H 	-0.699974	-0.326614	2.665511
O 	0.000000	-0.000000	-2.080000
H 	-0.688149	0.350844	-2.715106
H 	0.688149	-0.350844	-2.665511
