25
06/05/2024 23:26, XYZ structure generated by mol3D Class, molSimplify
Fe 	0.000000	0.000000	0.000000
B 	0.000000	2.100000	0.000000
S 	-0.904578	3.268533	1.178291
O 	0.114081	4.150990	1.903466
O 	-1.868316	4.150987	0.381572
O 	-1.784374	2.353806	2.324300
C 	0.904578	2.694448	-1.178291
O 	1.512848	1.908687	-1.970614
Cl 	1.058991	4.456294	-1.379426
H 	-2.262987	2.972077	2.947734
O 	2.080000	-0.000000	-0.000000
H 	2.715106	-0.440844	0.634268
H 	2.665511	0.440844	-0.634268
O 	-0.000000	-2.080000	0.000000
H 	-0.462712	-2.715106	0.618496
H 	0.462712	-2.665511	-0.618496
O 	-2.080000	0.000000	0.000000
H 	-2.715106	0.484015	0.601971
H 	-2.665511	-0.484015	-0.601971
O 	0.000000	0.000000	2.080000
H 	0.584713	0.504729	2.715106
H 	-0.584713	-0.504729	2.665511
O 	0.000000	-0.000000	-2.080000
H 	-0.730074	0.252254	-2.715106
H 	0.730074	-0.252254	-2.665511
