33
06/05/2024 22:55, XYZ structure generated by mol3D Class, molSimplify
Fe 	0.000000	0.000000	0.000000
B 	0.000000	2.100000	0.000000
S 	-0.881704	0.892364	-1.155990
C 	-1.824429	1.819559	-2.391984
C 	-1.370321	1.864391	-3.699784
C 	-2.012269	2.841855	-4.496350
C 	-3.161511	3.417807	-4.193799
C 	-3.589662	3.279607	-2.902661
C 	-2.938237	2.444076	-2.027773
N 	0.881704	1.562614	1.155990
C 	1.495468	2.403263	1.960688
H 	-0.603631	1.218452	-4.073748
H 	-1.533257	3.134744	-5.407209
H 	-3.727176	3.963273	-4.920016
H 	-4.444314	3.830041	-2.568755
H 	-3.332024	2.295299	-1.044057
H 	1.385974	3.457920	1.817132
H 	2.104129	2.032293	2.758695
O 	2.080000	0.000000	0.000000
H 	2.715106	-0.487200	0.599396
H 	2.665511	0.487200	-0.599396
O 	-0.000000	-2.080000	0.000000
H 	-0.507822	-2.715106	0.582028
H 	0.507822	-2.665511	-0.582028
O 	-2.080000	0.000000	0.000000
H 	-2.715106	0.527825	0.563951
H 	-2.665511	-0.527825	-0.563951
O 	0.000000	0.000000	2.080000
H 	-0.122230	0.762692	2.715106
H 	0.122230	-0.762692	2.665511
O 	0.000000	-0.000000	-2.080000
H 	0.148773	0.757962	-2.715106
H 	-0.148773	-0.757962	-2.665511
