30
06/06/2024 02:34, XYZ structure generated by mol3D Class, molSimplify
Fe 	0.000000	0.000000	0.000000
B 	0.000000	2.100000	0.000000
O 	-1.329360	2.776364	-0.159164
C 	-2.509167	1.998867	-0.300422
O 	-2.438772	0.729946	-0.291994
C 	-3.856252	2.684250	-0.461709
C 	1.329360	2.976053	0.159164
O 	2.455682	2.402992	0.294019
C 	1.245167	4.493686	0.149084
H 	-4.050378	3.295291	0.394938
H 	-3.842657	3.295289	-1.339972
H 	-4.623996	1.944642	-0.553631
H 	0.829224	4.821661	-0.780607
H 	0.621506	4.821660	0.954304
H 	2.225505	4.906070	0.266460
O 	2.080000	0.000000	0.000000
H 	2.715106	-0.359583	-0.683623
H 	2.665511	0.359583	0.683623
O 	-0.000000	-2.080000	0.000000
H 	-0.335506	-2.715106	-0.695755
H 	0.335506	-2.665511	0.695755
O 	-2.080000	0.000000	0.000000
H 	-2.715106	0.050441	-0.770776
H 	-2.665511	-0.050441	0.770776
O 	0.000000	0.000000	2.080000
H 	-0.772067	0.023511	2.715106
H 	0.772067	-0.023511	2.665511
O 	0.000000	0.000000	-2.080000
H 	-0.003448	-0.772417	-2.715106
H 	0.003448	0.772417	-2.665511
