32
06/06/2024 01:55, XYZ structure generated by mol3D Class, molSimplify
Fe 	0.000000	0.000000	0.000000
B 	0.000000	2.100000	-0.000000
S 	-1.193187	0.892364	-0.830675
C 	-2.468952	1.819559	-1.718838
C 	-2.116345	2.963240	-2.416138
C 	-3.219612	3.753274	-2.817012
C 	-4.467179	3.323837	-2.873378
C 	-4.737169	2.152563	-2.221708
C 	-3.725257	1.390515	-1.689533
N 	1.193187	1.562614	0.830675
N 	1.995527	2.374669	1.389248
N 	2.797867	3.186724	1.947822
H 	-1.101703	3.225497	-2.632062
H 	-3.029912	4.769314	-3.093735
H 	-5.225897	3.863478	-3.400667
H 	-5.751067	1.824674	-2.124761
H 	-3.951621	0.442755	-1.247481
O 	2.080000	0.000000	-0.000000
H 	2.715106	-0.147557	0.758200
H 	2.665511	0.147557	-0.758200
O 	-0.000000	-2.080000	0.000000
H 	-0.173928	-2.715106	0.752588
H 	0.173928	-2.665511	-0.752588
O 	-2.080000	0.000000	0.000000
H 	-2.715106	0.200087	0.746060
H 	-2.665511	-0.200087	-0.746060
O 	0.000000	0.000000	2.080000
H 	0.738622	0.226002	2.715106
H 	-0.738622	-0.226002	2.665511
O 	0.000000	-0.000000	-2.080000
H 	-0.730285	0.251642	-2.715106
H 	0.730285	-0.251642	-2.665511
