36
06/06/2024 03:03, XYZ structure generated by mol3D Class, molSimplify
Fe 	0.000000	0.000000	0.000000
B 	0.000000	2.100000	0.000000
S 	-1.533119	1.155000	-0.573254
C 	-2.821724	2.331197	-1.055081
C 	-2.496166	3.394943	-1.880322
C 	-3.495546	4.394252	-1.948669
C 	-4.754142	4.220666	-1.588366
C 	-5.022878	3.114373	-0.831168
C 	-4.061065	2.158200	-0.610843
S 	1.533119	1.155000	0.573254
O 	2.622708	2.149530	0.980666
O 	1.171407	0.275122	1.772110
C 	2.140513	0.114404	-0.777425
F 	1.193632	-0.749868	-1.131476
F 	2.454850	0.879040	-1.819261
F 	3.219374	-0.550596	-0.374024
H 	-1.572706	3.455493	-2.417403
H 	-3.211808	5.357586	-2.317967
H 	-5.522273	4.908768	-1.873656
H 	-5.996196	2.991460	-0.404033
H 	-4.313005	1.266094	-0.076453
O 	2.080000	-0.000000	0.000000
H 	2.715106	-0.616249	0.465700
H 	2.665511	0.616249	-0.465700
O 	0.000000	-2.080000	0.000000
H 	-0.632126	-2.715106	0.443910
H 	0.632126	-2.665511	-0.443910
O 	-2.080000	0.000000	0.000000
H 	-2.715106	0.647234	0.421579
H 	-2.665511	-0.647234	-0.421579
O 	0.000000	0.000000	2.080000
H 	0.398734	0.661552	2.715106
H 	-0.398734	-0.661552	2.665511
O 	0.000000	0.000000	-2.080000
H 	0.534250	-0.557868	-2.715106
H 	-0.534250	0.557868	-2.665511
