28
06/06/2024 02:47, XYZ structure generated by mol3D Class, molSimplify
Fe 	0.000000	0.000000	0.000000
B 	0.000000	2.100000	0.000000
O 	-1.376859	1.618319	-0.349632
S 	-2.401847	2.962103	-0.609912
O 	-2.465681	3.809177	0.663143
O 	-1.850567	3.809173	-1.759190
C 	-4.063256	2.380875	-1.031802
S 	1.376859	0.853358	0.349632
C 	2.907352	1.738030	0.738278
N 	3.973596	2.354351	1.009034
H 	-4.018627	1.788651	-1.921847
H 	-4.448678	1.788653	-0.228295
H 	-4.704623	3.221722	-1.194667
O 	2.080000	-0.000000	0.000000
H 	2.715106	-0.649183	-0.418570
H 	2.665511	0.649183	0.418570
O 	-0.000000	-2.080000	0.000000
H 	-0.634180	-2.715106	-0.440971
H 	0.634180	-2.665511	0.440971
O 	-2.080000	0.000000	0.000000
H 	-2.715106	0.445113	-0.631280
H 	-2.665511	-0.445113	0.631280
O 	0.000000	0.000000	2.080000
H 	-0.646429	0.422811	2.715106
H 	0.646429	-0.422811	2.665511
O 	0.000000	0.000000	-2.080000
H 	0.627625	-0.450252	-2.715106
H 	-0.627625	0.450252	-2.665511
