32
06/06/2024 02:27, XYZ structure generated by mol3D Class, molSimplify
Fe 	0.000000	0.000000	0.000000
B 	0.000000	2.100000	0.000000
N 	-0.776344	2.637386	1.229230
C 	-1.908281	3.457253	0.773778
C 	-1.278349	1.507297	2.024083
S 	0.776344	3.307636	-1.229230
O 	1.478217	2.523652	-2.340545
O 	-0.316798	4.188577	-1.838541
N 	1.949242	4.320708	-0.395207
H 	-2.561687	2.860481	0.172260
H 	-2.444211	3.828220	1.622343
H 	-1.542871	4.279833	0.195212
H 	-1.931752	0.910521	1.422566
H 	-0.454422	0.910523	2.355603
H 	-1.814276	1.878267	2.872648
H 	2.677789	3.733586	0.010881
H 	2.368222	4.972447	-1.058601
O 	2.080000	0.000000	-0.000000
H 	2.715106	-0.182727	0.750500
H 	2.665511	0.182727	-0.750500
O 	-0.000000	-2.080000	0.000000
H 	-0.208808	-2.715106	0.743666
H 	0.208808	-2.665511	-0.743666
O 	-2.080000	0.000000	0.000000
H 	-2.715106	0.768627	-0.076499
H 	-2.665511	-0.768627	0.076499
O 	0.000000	0.000000	2.080000
H 	-0.770829	-0.049628	2.715106
H 	0.770829	0.049628	2.665511
O 	0.000000	0.000000	-2.080000
H 	-0.076499	-0.768627	-2.715106
H 	0.076499	0.768627	-2.665511
