27
06/06/2024 00:00, XYZ structure generated by mol3D Class, molSimplify
Fe 	0.000000	0.000000	0.000000
B 	0.000000	2.100000	-0.000000
N 	-1.141503	2.912787	-0.662455
N 	-0.604541	3.730972	-1.691359
O 	1.141503	2.812827	0.662455
C 	2.051975	1.859803	1.190834
F 	1.427221	1.097471	2.083825
F 	2.517364	1.097474	0.205356
F 	3.064109	2.491843	1.778211
H 	-1.828047	2.272229	-1.060881
H 	-1.355724	4.265837	-2.127299
H 	0.082002	4.371528	-1.292929
O 	2.080000	-0.000000	0.000000
H 	2.715106	0.042248	0.771268
H 	2.665511	-0.042248	-0.771268
O 	0.000000	-2.080000	0.000000
H 	0.015305	-2.715106	0.772273
H 	-0.015305	-2.665511	-0.772273
O 	-2.080000	0.000000	0.000000
H 	-2.715106	0.011656	0.772337
H 	-2.665511	-0.011656	-0.772337
O 	0.000000	0.000000	2.080000
H 	-0.224089	0.739205	2.715106
H 	0.224089	-0.739205	2.665511
O 	0.000000	-0.000000	-2.080000
H 	0.249751	0.730934	-2.715106
H 	-0.249751	-0.730934	-2.665511
