23
06/06/2024 02:57, XYZ structure generated by mol3D Class, molSimplify
Fe 	0.000000	0.000000	0.000000
B 	0.000000	2.100000	0.000000
S 	1.271150	3.268533	0.768641
C 	-1.271150	2.694448	-0.768641
Cl 	-2.276080	1.356815	-1.376305
Cl 	-2.227792	3.693926	0.351305
Cl 	-0.723730	3.693928	-2.136037
H 	2.254425	2.541031	1.363210
O 	2.080000	0.000000	0.000000
H 	2.715106	-0.414575	-0.651742
H 	2.665511	0.414575	0.651742
O 	0.000000	-2.080000	0.000000
H 	-0.391577	-2.715106	-0.665813
H 	0.391577	-2.665511	0.665813
O 	-2.080000	0.000000	0.000000
H 	-2.715106	-0.404044	-0.658322
H 	-2.665511	0.404044	0.658322
O 	0.000000	0.000000	2.080000
H 	-0.643820	-0.426773	2.715106
H 	0.643820	0.426773	2.665511
O 	0.000000	0.000000	-2.080000
H 	0.555611	-0.536597	-2.715106
H 	-0.555611	0.536597	-2.665511
