23
06/06/2024 01:29, XYZ structure generated by mol3D Class, molSimplify
Fe 	0.000000	0.000000	0.000000
B 	0.000000	2.100000	-0.000000
N 	0.092777	2.875000	-1.339129
C 	0.171526	2.217175	-2.475791
S 	0.268490	1.407200	-3.875354
N 	-0.092777	2.875000	1.339129
O 	-0.174779	2.190000	2.522747
O 	-0.092777	4.101150	1.339129
O 	2.080000	0.000000	-0.000000
H 	2.715106	0.045718	-0.771070
H 	2.665511	-0.045718	0.771070
O 	0.000000	-2.080000	0.000000
H 	0.072600	-2.715106	-0.769005
H 	-0.072600	-2.665511	0.769005
O 	-2.080000	0.000000	0.000000
H 	-2.715106	-0.099394	-0.766003
H 	-2.665511	0.099394	0.766003
O 	0.000000	0.000000	2.080000
H 	-0.762068	-0.126067	2.715106
H 	0.762068	0.126067	2.665511
O 	0.000000	-0.000000	-2.080000
H 	-0.762068	0.126067	-2.715106
H 	0.762068	-0.126067	-2.665511
