36
06/06/2024 01:45, XYZ structure generated by mol3D Class, molSimplify
Fe 	0.000000	0.000000	0.000000
B 	0.000000	2.100000	0.000000
N 	0.191787	2.637386	-1.441157
C 	0.224508	4.086308	-1.687032
C 	-0.592276	4.526748	-2.715352
C 	-0.389354	5.881845	-3.068317
C 	0.223437	6.770326	-2.307328
C 	0.959327	6.275357	-1.266693
C 	0.915024	4.941110	-0.941552
S 	-0.191787	3.307636	1.441157
O 	-0.365177	2.523652	2.744070
O 	1.055944	4.188577	1.538043
N 	-1.605862	4.320708	1.173431
H 	0.295291	1.985646	-2.218925
H 	-1.311444	3.899175	-3.198933
H 	-0.758044	6.209506	-4.017847
H 	0.148101	7.821036	-2.495031
H 	1.578629	6.936557	-0.697325
H 	1.441719	4.587668	-0.079826
H 	-2.437438	3.733586	1.108859
H 	-1.709366	4.972447	1.951199
O 	2.080000	-0.000000	0.000000
H 	2.715106	-0.744564	0.205584
H 	2.665511	0.744564	-0.205584
O 	-0.000000	-2.080000	0.000000
H 	-0.751285	-2.715106	0.179473
H 	0.751285	-2.665511	-0.179473
O 	-2.080000	0.000000	0.000000
H 	-2.715106	0.757091	0.153145
H 	-2.665511	-0.757091	-0.153145
O 	0.000000	0.000000	2.080000
H 	-0.629347	0.447841	2.715106
H 	0.629347	-0.447841	2.665511
O 	0.000000	-0.000000	-2.080000
H 	-0.769850	-0.063008	-2.715106
H 	0.769850	0.063008	-2.665511
