31
06/06/2024 02:57, XYZ structure generated by mol3D Class, molSimplify
Fe 	0.000000	0.000000	0.000000
B 	0.000000	2.100000	0.000000
N 	0.536427	2.912787	1.205870
C 	-0.538323	3.759782	1.742910
C 	1.001390	1.989630	2.251093
O 	-0.536427	2.812827	-1.205870
C 	-0.964285	1.859803	-2.167682
F 	0.065356	1.097471	-2.524879
F 	-1.919036	1.097474	-1.642130
F 	-1.439917	2.491843	-3.236887
H 	-1.352491	3.143264	2.062187
H 	-0.168017	4.320865	2.575352
H 	-0.876763	4.431737	0.982099
H 	0.187226	1.373108	2.570368
H 	1.783691	1.373110	1.860186
H 	1.371698	2.550716	3.083532
O 	2.080000	-0.000000	-0.000000
H 	2.715106	0.157827	-0.756129
H 	2.665511	-0.157827	0.756129
O 	-0.000000	-2.080000	0.000000
H 	0.184119	-2.715106	-0.750160
H 	-0.184119	-2.665511	0.750160
O 	-2.080000	0.000000	0.000000
H 	-2.715106	-0.429585	-0.641947
H 	-2.665511	0.429585	0.641947
O 	0.000000	0.000000	2.080000
H 	0.741717	-0.215628	2.715106
H 	-0.741717	0.215628	2.665511
O 	0.000000	-0.000000	-2.080000
H 	-0.762564	-0.123029	-2.715106
H 	0.762564	0.123029	-2.665511
