32
06/06/2024 02:00, XYZ structure generated by mol3D Class, molSimplify
Fe 	0.000000	0.000000	0.000000
B 	0.000000	2.100000	0.000000
S 	1.440110	0.892364	0.199501
C 	2.979885	1.819559	0.412810
C 	4.168460	1.129696	0.585851
C 	5.241246	1.938373	1.029950
C 	5.267216	3.256498	0.953223
C 	4.071974	3.875303	0.712541
C 	2.949428	3.147023	0.400463
N 	-1.440110	1.562614	-0.199501
C 	-2.442586	2.403263	-0.338376
O 	-3.410964	3.215318	-0.472528
H 	4.266477	0.080439	0.400507
H 	6.090525	1.447806	1.457698
H 	6.174809	3.810427	1.072968
H 	4.009889	4.942058	0.768017
H 	2.042484	3.654150	0.145169
O 	2.080000	0.000000	0.000000
H 	2.715106	0.581054	0.508936
H 	2.665511	-0.581054	-0.508936
O 	-0.000000	-2.080000	0.000000
H 	0.562939	-2.715106	0.528905
H 	-0.562939	-2.665511	-0.528905
O 	-2.080000	0.000000	0.000000
H 	-2.715106	-0.440672	0.634388
H 	-2.665511	0.440672	-0.634388
O 	0.000000	0.000000	2.080000
H 	0.649381	-0.418263	2.715106
H 	-0.649381	0.418263	2.665511
O 	0.000000	-0.000000	-2.080000
H 	-0.482543	-0.603152	-2.715106
H 	0.482543	0.603152	-2.665511
