42
06/05/2024 23:30, XYZ structure generated by mol3D Class, molSimplify
Fe 	0.000000	0.000000	0.000000
B 	0.000000	2.100000	0.000000
C 	1.278268	2.976053	-0.398200
C 	0.939364	3.853058	-1.592522
C 	1.677600	3.853055	0.777301
C 	2.432194	2.054295	-0.757665
O 	-1.278268	2.776364	0.398200
C 	-2.412730	1.998867	0.751602
C 	-3.687876	2.374298	0.362218
C 	-4.719535	1.770775	1.119510
C 	-4.566209	0.695662	1.870935
C 	-3.279780	0.337041	2.164094
C 	-2.216359	0.966917	1.563856
H 	0.127060	4.501927	-1.339477
H 	1.794206	4.438917	-1.858818
H 	0.658255	3.235694	-2.420012
H 	1.916171	3.235694	1.618044
H 	2.532443	4.438913	0.511006
H 	0.865293	4.501922	1.030342
H 	2.670765	1.436930	0.083075
H 	2.151086	1.436932	-1.585156
H 	3.287036	2.640156	-1.023961
H 	-3.875720	3.058626	-0.438600
H 	-5.691518	2.216464	1.080657
H 	-5.403664	0.135359	2.230977
H 	-3.098577	-0.445379	2.871119
H 	-1.220963	0.622761	1.752651
O 	2.080000	0.000000	0.000000
H 	2.715106	-0.038018	-0.771488
H 	2.665511	0.038018	0.771488
O 	0.000000	-2.080000	0.000000
H 	-0.011070	-2.715106	-0.772345
H 	0.011070	-2.665511	0.772345
O 	-2.080000	0.000000	0.000000
H 	-2.715106	-0.615432	0.466780
H 	-2.665511	0.615432	-0.466780
O 	0.000000	0.000000	2.080000
H 	0.699032	0.328624	2.715106
H 	-0.699032	-0.328624	2.665511
O 	0.000000	-0.000000	-2.080000
H 	0.028168	-0.771911	-2.715106
H 	-0.028168	0.771911	-2.665511
