29
06/06/2024 02:22, XYZ structure generated by mol3D Class, molSimplify
Fe 	0.000000	0.000000	0.000000
B 	0.000000	2.100000	-0.000000
O 	0.836717	2.850000	-0.993683
C 	1.531905	1.927237	-1.819287
O 	-0.836717	2.850000	0.993683
C 	-1.628808	2.140000	1.934369
O 	-1.628808	0.869100	1.934369
C 	-2.476681	2.900000	2.941301
H 	2.163683	1.312076	-1.213206
H 	0.827107	1.312078	-2.338651
H 	2.128763	2.462237	-2.528114
H 	-1.844903	3.515161	3.547381
H 	-3.181479	3.515159	2.421936
H 	-3.000520	2.204679	3.563411
O 	2.080000	0.000000	0.000000
H 	2.715106	0.677708	0.370611
H 	2.665511	-0.677708	-0.370611
O 	-0.000000	-2.080000	0.000000
H 	0.664361	-2.715106	0.394037
H 	-0.664361	-2.665511	-0.394037
O 	-2.080000	0.000000	0.000000
H 	-2.715106	-0.650204	0.416982
H 	-2.665511	0.650204	-0.416982
O 	0.000000	0.000000	2.080000
H 	0.585844	0.503415	2.715106
H 	-0.585844	-0.503415	2.665511
O 	0.000000	-0.000000	-2.080000
H 	-0.737509	0.229607	-2.715106
H 	0.737509	-0.229607	-2.665511
