26
06/06/2024 00:23, XYZ structure generated by mol3D Class, molSimplify
Fe 	0.000000	0.000000	0.000000
B 	0.000000	2.100000	0.000000
C 	-1.304341	2.900000	-0.467648
O 	-1.304341	4.170900	-0.467648
N 	-2.502704	2.165000	-0.897299
C 	1.304341	2.900000	0.467648
F 	2.255936	2.035728	0.808825
F 	1.737163	3.664636	-0.530799
F 	1.004156	3.664637	1.513649
H 	-2.502704	1.145000	-0.897299
H 	-3.334222	2.675000	-1.195425
O 	2.080000	0.000000	0.000000
H 	2.715106	0.017315	-0.772231
H 	2.665511	-0.017315	0.772231
O 	-0.000000	-2.080000	0.000000
H 	0.044255	-2.715106	-0.771156
H 	-0.044255	-2.665511	0.771156
O 	-2.080000	0.000000	0.000000
H 	-2.715106	-0.354086	-0.686486
H 	-2.665511	0.354086	0.686486
O 	0.000000	0.000000	2.080000
H 	-0.673710	-0.377828	2.715106
H 	0.673710	0.377828	2.665511
O 	0.000000	-0.000000	-2.080000
H 	0.660114	-0.401110	-2.715106
H 	-0.660114	0.401110	-2.665511
