27
06/05/2024 23:28, XYZ structure generated by mol3D Class, molSimplify
Fe 	0.000000	0.000000	0.000000
B 	0.000000	2.100000	-0.000000
C 	0.331031	2.694448	-1.448119
C 	0.600792	3.178869	-2.628206
S 	-0.331031	3.268533	1.448119
O 	-0.619189	2.449860	2.708682
O 	0.897203	4.150986	1.682627
C 	-1.759841	4.312173	1.066782
F 	-1.509425	5.023620	-0.028679
F 	-2.827207	3.545299	0.862990
F 	-1.992789	5.134474	2.085829
H 	0.822170	3.576406	-3.596636
O 	2.080000	-0.000000	0.000000
H 	2.715106	-0.000003	-0.772425
H 	2.665511	0.000003	0.772425
O 	0.000000	-2.080000	0.000000
H 	0.026954	-2.715106	-0.771954
H 	-0.026954	-2.665511	0.771954
O 	-2.080000	0.000000	0.000000
H 	-2.715106	-0.053879	-0.770543
H 	-2.665511	0.053879	0.770543
O 	0.000000	0.000000	2.080000
H 	-0.768194	-0.080737	2.715106
H 	0.768194	0.080737	2.665511
O 	0.000000	0.000000	-2.080000
H 	-0.107498	-0.764908	-2.715106
H 	0.107498	0.764908	-2.665511
