29
06/06/2024 02:46, XYZ structure generated by mol3D Class, molSimplify
Fe 	0.000000	0.000000	0.000000
B 	0.000000	2.100000	0.000000
N 	0.149484	2.912787	-1.311309
O 	1.266571	3.702163	-1.234480
O 	-0.149484	2.812827	1.311309
S 	-0.293064	1.665171	2.570821
O 	-1.522620	0.787945	2.323954
O 	0.960510	0.787948	2.607022
C 	-0.473442	2.525316	4.153134
H 	0.239390	2.272229	-2.099980
H 	1.178424	4.330159	-0.461272
H 	0.386191	3.138621	4.325728
H 	-1.349866	3.138618	4.127824
H 	-0.563284	1.807192	4.941249
O 	2.080000	0.000000	0.000000
H 	2.715106	-0.625901	0.452645
H 	2.665511	0.625901	-0.452645
O 	-0.000000	-2.080000	0.000000
H 	-0.641317	-2.715106	0.430525
H 	0.641317	-2.665511	-0.430525
O 	-2.080000	0.000000	0.000000
H 	-2.715106	0.655952	0.407882
H 	-2.665511	-0.655952	-0.407882
O 	0.000000	0.000000	2.080000
H 	-0.497805	0.590619	2.715106
H 	0.497805	-0.590619	2.665511
O 	0.000000	0.000000	-2.080000
H 	-0.691711	0.343767	-2.715106
H 	0.691711	-0.343767	-2.665511
