34
06/06/2024 02:52, XYZ structure generated by mol3D Class, molSimplify
Fe 	0.000000	0.000000	0.000000
B 	0.000000	2.100000	0.000000
O 	-1.050492	1.618319	-0.956269
C 	-1.839751	2.554950	-1.674735
C 	-3.208253	2.361617	-1.766328
C 	-3.839043	3.178149	-2.734539
C 	-3.306357	4.267642	-3.257288
C 	-1.961872	4.435430	-3.073827
C 	-1.251900	3.599580	-2.246066
S 	1.050492	0.853358	0.956269
C 	2.218202	1.738030	2.019241
H 	-3.740144	1.658577	-1.159924
H 	-4.815568	2.893057	-3.066235
H 	-3.895245	4.980720	-3.795461
H 	-1.455308	5.229070	-3.582184
H 	-0.215927	3.792177	-2.060146
H 	2.854102	2.352407	1.416687
H 	1.677881	2.352405	2.708803
H 	2.812925	1.032259	2.560620
O 	2.080000	0.000000	0.000000
H 	2.715106	-0.610277	0.473499
H 	2.665511	0.610277	-0.473499
O 	0.000000	-2.080000	0.000000
H 	-0.626431	-2.715106	0.451912
H 	0.626431	-2.665511	-0.451912
O 	-2.080000	0.000000	0.000000
H 	-2.715106	0.641820	0.429775
H 	-2.665511	-0.641820	-0.429775
O 	0.000000	0.000000	2.080000
H 	0.407114	0.656428	2.715106
H 	-0.407114	-0.656428	2.665511
O 	0.000000	-0.000000	-2.080000
H 	0.034549	-0.771652	-2.715106
H 	-0.034549	0.771652	-2.665511
