43
06/06/2024 00:57, XYZ structure generated by mol3D Class, molSimplify
Fe 	0.000000	0.000000	0.000000
B 	0.000000	2.100000	-0.000000
N 	-1.340979	2.837816	-0.244749
C 	-1.380722	4.307261	-0.252003
C 	-2.289565	5.046063	0.487417
C 	-2.264762	6.432597	0.206420
C 	-1.272208	7.055782	-0.402262
C 	-0.369176	6.265791	-1.057927
C 	-0.408783	4.897637	-0.937591
C 	1.340979	2.937779	0.244749
C 	2.503802	1.982164	0.456982
C 	1.619369	3.813531	-0.966018
C 	1.173693	3.813532	1.475794
H 	-2.195853	2.303733	-0.400776
H 	-2.950440	4.608006	1.205923
H 	-3.108908	7.016823	0.508077
H 	-1.179680	8.121606	-0.383344
H 	0.379128	6.719534	-1.673605
H 	0.350448	4.302524	-1.400526
H 	2.621563	1.365680	-0.409609
H 	3.400581	2.542430	0.620659
H 	2.307829	1.365681	1.309298
H 	0.800805	4.486236	-1.115423
H 	2.516148	4.373798	-0.802341
H 	1.737129	3.197043	-1.832606
H 	0.355127	4.486234	1.326393
H 	0.977721	3.197048	2.328110
H 	2.070473	4.373796	1.639470
O 	2.080000	-0.000000	0.000000
H 	2.715106	-0.046839	-0.771003
H 	2.665511	0.046839	0.771003
O 	-0.000000	-2.080000	0.000000
H 	-0.019903	-2.715106	-0.772168
H 	0.019903	-2.665511	0.772168
O 	-2.080000	0.000000	0.000000
H 	-2.715106	-0.007057	-0.772392
H 	-2.665511	0.007057	0.772392
O 	0.000000	0.000000	2.080000
H 	-0.771676	-0.034009	2.715106
H 	0.771676	0.034009	2.665511
O 	0.000000	-0.000000	-2.080000
H 	0.772425	-0.000132	-2.715106
H 	-0.772425	0.000132	-2.665511
