23
06/06/2024 01:39, XYZ structure generated by mol3D Class, molSimplify
Fe 	0.000000	0.000000	0.000000
B 	0.000000	2.100000	0.000000
N 	-0.993001	1.287213	-0.869383
C 	-1.863962	1.912434	-1.631919
S 	-2.936369	2.682264	-2.570823
O 	0.993001	1.387173	0.869383
C 	1.785026	2.340197	1.562809
N 	2.488347	3.186487	2.178575
O 	2.080000	-0.000000	0.000000
H 	2.715106	-0.358351	-0.684269
H 	2.665511	0.358351	0.684269
O 	-0.000000	-2.080000	0.000000
H 	-0.334252	-2.715106	-0.696359
H 	0.334252	-2.665511	0.696359
O 	-2.080000	0.000000	0.000000
H 	-2.715106	0.309745	-0.707600
H 	-2.665511	-0.309745	0.707600
O 	0.000000	0.000000	2.080000
H 	-0.717979	0.284862	2.715106
H 	0.717979	-0.284862	2.665511
O 	0.000000	-0.000000	-2.080000
H 	0.727483	0.259631	-2.715106
H 	-0.727483	-0.259631	-2.665511
