28
06/06/2024 01:47, XYZ structure generated by mol3D Class, molSimplify
Fe 	0.000000	0.000000	0.000000
B 	0.000000	2.100000	-0.000000
N 	1.178345	2.637386	0.851598
C 	0.653089	3.457253	1.952881
C 	1.940295	1.507297	1.402263
S 	-1.178345	3.307636	-0.851598
H 	0.011938	2.860481	2.567444
H 	1.466528	3.828220	2.540760
H 	0.098474	4.279833	1.552051
H 	1.299145	0.910521	2.016824
H 	2.322624	0.910523	0.600649
H 	2.753733	1.878267	1.990141
H 	-2.125007	2.610959	-1.535756
O 	2.080000	0.000000	0.000000
H 	2.715106	0.163066	-0.755016
H 	2.665511	-0.163066	0.755016
O 	-0.000000	-2.080000	0.000000
H 	0.189316	-2.715106	-0.748865
H 	-0.189316	-2.665511	0.748865
O 	-2.080000	0.000000	0.000000
H 	-2.715106	-0.215336	-0.741802
H 	-2.665511	0.215336	0.741802
O 	0.000000	0.000000	2.080000
H 	0.163066	-0.755016	2.715106
H 	-0.163066	0.755016	2.665511
O 	0.000000	-0.000000	-2.080000
H 	-0.750290	0.183587	-2.715106
H 	0.750290	-0.183587	-2.665511
