28
06/06/2024 03:28, XYZ structure generated by mol3D Class, molSimplify
Fe 	0.000000	0.000000	0.000000
B 	-0.000000	2.100000	0.000000
N 	-1.298765	2.837816	-0.413927
C 	-1.337257	4.307261	-0.426195
O 	-2.402160	4.912223	-0.765589
N 	-0.144016	5.076970	-0.045899
C 	1.298765	2.937779	0.413927
O 	2.363669	2.332817	0.753321
O 	1.261583	4.357242	0.402077
H 	-2.126728	2.303733	-0.677806
H 	0.710655	4.591440	0.226492
H 	-0.170725	6.096585	-0.054411
H 	2.073311	4.880854	0.660782
O 	2.080000	-0.000000	0.000000
H 	2.715106	0.549674	-0.542677
H 	2.665511	-0.549674	0.542677
O 	-0.000000	-2.080000	0.000000
H 	0.568278	-2.715106	-0.523163
H 	-0.568278	-2.665511	0.523163
O 	-2.080000	0.000000	0.000000
H 	-2.715106	-0.586190	-0.503012
H 	-2.665511	0.586190	0.503012
O 	0.000000	0.000000	2.080000
H 	-0.482248	-0.603388	2.715106
H 	0.482248	0.603388	2.665511
O 	0.000000	-0.000000	-2.080000
H 	0.708024	-0.308775	-2.715106
H 	-0.708024	0.308775	-2.665511
