21
06/06/2024 02:46, XYZ structure generated by mol3D Class, molSimplify
Fe 	0.000000	0.000000	0.000000
B 	-0.000000	2.100000	-0.000000
F 	1.233727	2.702946	-0.320114
N 	-1.233727	2.982012	0.320114
C 	-2.384900	2.419411	0.618808
O 	-3.496916	1.875947	0.907342
O 	2.080000	0.000000	0.000000
H 	2.715106	-0.509873	-0.580232
H 	2.665511	0.509873	0.580232
O 	0.000000	-2.080000	0.000000
H 	-0.489313	-2.715106	-0.597673
H 	0.489313	-2.665511	0.597673
O 	-2.080000	0.000000	0.000000
H 	-2.715106	0.468156	-0.614385
H 	-2.665511	-0.468156	0.614385
O 	0.000000	0.000000	2.080000
H 	-0.630349	0.446430	2.715106
H 	0.630349	-0.446430	2.665511
O 	0.000000	-0.000000	-2.080000
H 	0.645546	0.424159	-2.715106
H 	-0.645546	-0.424159	-2.665511
