29
06/06/2024 03:12, XYZ structure generated by mol3D Class, molSimplify
Fe 	0.000000	0.000000	0.000000
B 	0.000000	2.100000	-0.000000
N 	-1.215960	2.837816	0.616092
C 	-1.848591	3.680482	-0.408893
C 	-2.188847	1.852216	1.109025
C 	1.215960	2.937779	-0.616092
O 	2.212968	2.332817	-1.121247
Cl 	1.172322	4.717106	-0.593982
H 	-2.177830	3.067115	-1.221471
H 	-2.687997	4.189811	0.016408
H 	-1.140431	4.397890	-0.767692
H 	-2.518084	1.238845	0.296450
H 	-1.728360	1.238848	1.855102
H 	-3.028251	2.361548	1.534327
O 	2.080000	0.000000	0.000000
H 	2.715106	0.753950	0.167927
H 	2.665511	-0.753950	-0.167927
O 	-0.000000	-2.080000	0.000000
H 	0.747630	-2.715106	0.194137
H 	-0.747630	-2.665511	-0.194137
O 	-2.080000	0.000000	0.000000
H 	-2.715106	-0.331850	0.697507
H 	-2.665511	0.331850	-0.697507
O 	0.000000	0.000000	2.080000
H 	0.678456	0.369238	2.715106
H 	-0.678456	-0.369238	2.665511
O 	0.000000	-0.000000	-2.080000
H 	-0.691087	-0.345020	-2.715106
H 	0.691087	0.345020	-2.665511
