35
06/06/2024 02:41, XYZ structure generated by mol3D Class, molSimplify
Fe 	0.000000	0.000000	0.000000
B 	0.000000	2.100000	0.000000
N 	-1.361902	2.837816	0.057889
C 	-1.402264	4.307261	0.059605
O 	-2.518936	4.912223	0.107071
N 	-0.151017	5.076970	0.006419
C 	1.361902	2.937779	-0.057889
C 	2.571688	2.265218	-0.109313
C 	3.696041	3.088217	0.136767
C 	3.688985	4.406873	0.065270
C 	2.461290	5.008546	0.050941
C 	1.311001	4.264671	-0.055726
H 	-2.230114	2.303733	0.094794
H 	0.745202	4.591440	-0.031676
H 	-0.179024	6.096585	0.007610
H 	2.648975	1.218287	-0.316344
H 	4.615991	2.608827	0.399023
H 	4.595284	4.973932	0.020939
H 	2.395358	6.074022	0.123844
H 	0.365629	4.759079	-0.137793
O 	2.080000	-0.000000	0.000000
H 	2.715106	-0.286838	-0.717192
H 	2.665511	0.286838	0.717192
O 	0.000000	-2.080000	0.000000
H 	-0.261633	-2.715106	-0.726765
H 	0.261633	-2.665511	0.726765
O 	-2.080000	0.000000	0.000000
H 	-2.715106	0.236110	-0.735454
H 	-2.665511	-0.236110	0.735454
O 	0.000000	0.000000	2.080000
H 	-0.743246	0.210299	2.715106
H 	0.743246	-0.210299	2.665511
O 	0.000000	0.000000	-2.080000
H 	0.771034	0.046329	-2.715106
H 	-0.771034	-0.046329	-2.665511
