21
06/05/2024 22:48, XYZ structure generated by mol3D Class, molSimplify
Fe 	0.000000	0.000000	0.000000
B 	0.000000	2.100000	-0.000000
F 	0.082101	2.485323	1.353841
S 	-0.082101	3.416235	-1.353841
C 	-0.180248	2.611771	-2.972268
N 	-0.248623	2.051329	-4.099771
O 	2.080000	-0.000000	-0.000000
H 	2.715106	0.591599	0.496639
H 	2.665511	-0.591599	-0.496639
O 	0.000000	-2.080000	0.000000
H 	0.573906	-2.715106	0.516983
H 	-0.573906	-2.665511	-0.516983
O 	-2.080000	0.000000	0.000000
H 	-2.715106	-0.555514	0.536697
H 	-2.665511	0.555514	-0.536697
O 	0.000000	0.000000	2.080000
H 	0.555757	-0.536445	2.715106
H 	-0.555757	0.536445	2.665511
O 	0.000000	0.000000	-2.080000
H 	0.450878	0.627175	-2.715106
H 	-0.450878	-0.627175	-2.665511
