31
06/06/2024 02:50, XYZ structure generated by mol3D Class, molSimplify
Fe 	0.000000	0.000000	0.000000
B 	0.000000	2.100000	0.000000
N 	-1.292630	2.837816	0.432707
C 	-1.330939	4.307261	0.445532
O 	-2.390812	4.912223	0.800324
C 	-0.102941	5.103151	0.034460
C 	1.292630	2.937779	-0.432707
O 	2.352502	2.332817	-0.787500
C 	1.253017	4.457205	-0.419447
H 	-2.116681	2.303733	0.708558
H 	0.712989	4.860176	0.682627
H 	0.158330	4.860177	-0.974303
H 	-0.315699	6.149364	0.105680
H 	0.488258	4.799876	-1.084744
H 	1.042917	4.799875	0.572185
H 	2.199991	4.841457	-0.736447
O 	2.080000	0.000000	0.000000
H 	2.715106	-0.651603	-0.414793
H 	2.665511	0.651603	0.414793
O 	-0.000000	-2.080000	0.000000
H 	-0.636730	-2.715106	-0.437281
H 	0.636730	-2.665511	0.437281
O 	-2.080000	0.000000	0.000000
H 	-2.715106	0.621081	-0.459236
H 	-2.665511	-0.621081	0.459236
O 	0.000000	0.000000	2.080000
H 	-0.480632	0.604676	2.715106
H 	0.480632	-0.604676	2.665511
O 	0.000000	-0.000000	-2.080000
H 	0.501442	0.587534	-2.715106
H 	-0.501442	-0.587534	-2.665511
