23
06/05/2024 23:19, XYZ structure generated by mol3D Class, molSimplify
Fe 	0.000000	0.000000	0.000000
B 	0.000000	2.100000	0.000000
C 	-0.713533	2.900000	1.187801
F 	0.181076	3.664640	1.807399
F 	-1.680705	3.664637	0.688994
F 	-1.234095	2.035722	2.054369
C 	0.713533	2.900000	-1.187801
N 	1.275870	3.530483	-2.123911
O 	2.080000	0.000000	0.000000
H 	2.715106	-0.494342	0.593520
H 	2.665511	0.494342	-0.593520
O 	0.000000	-2.080000	0.000000
H 	-0.514755	-2.715106	0.575906
H 	0.514755	-2.665511	-0.575906
O 	-2.080000	0.000000	0.000000
H 	-2.715106	0.534540	0.557590
H 	-2.665511	-0.534540	-0.557590
O 	0.000000	0.000000	2.080000
H 	0.538595	0.553674	2.715106
H 	-0.538595	-0.553674	2.665511
O 	0.000000	-0.000000	-2.080000
H 	-0.518944	0.572133	-2.715106
H 	0.518944	-0.572133	-2.665511
