24
06/06/2024 01:18, XYZ structure generated by mol3D Class, molSimplify
Fe 	0.000000	0.000000	0.000000
B 	0.000000	2.100000	-0.000000
C 	-1.228381	2.900000	-0.641155
Cl 	-1.984464	3.923352	0.603630
Cl 	-0.639482	3.923348	-1.973204
Cl 	-2.427771	1.743298	-1.267177
C 	1.228381	2.900000	0.641155
O 	2.204100	2.264550	1.150432
Cl 	1.228381	4.680000	0.641155
O 	2.080000	-0.000000	0.000000
H 	2.715106	0.295852	0.713521
H 	2.665511	-0.295852	-0.713521
O 	-0.000000	-2.080000	0.000000
H 	0.270770	-2.715106	0.723411
H 	-0.270770	-2.665511	-0.723411
O 	-2.080000	0.000000	0.000000
H 	-2.715106	0.257578	0.728212
H 	-2.665511	-0.257578	-0.728212
O 	0.000000	0.000000	2.080000
H 	0.718780	0.282835	2.715106
H 	-0.718780	-0.282835	2.665511
O 	0.000000	0.000000	-2.080000
H 	0.004343	0.772412	-2.715106
H 	-0.004343	-0.772412	-2.665511
