32
06/05/2024 22:45, XYZ structure generated by mol3D Class, molSimplify
Fe 	0.000000	0.000000	0.000000
B 	0.000000	2.100000	0.000000
C 	1.381536	2.900000	-0.106577
C 	-1.381536	2.900000	0.106577
C 	-2.569943	2.194416	0.198255
C 	-3.724249	2.986518	-0.007176
C 	-3.750864	4.304787	0.066822
C 	-2.540354	4.939926	0.040089
C 	-1.367117	4.227792	0.105465
H 	1.370853	3.515161	-0.981998
H 	1.505247	3.515159	0.760127
H 	2.192409	2.204679	-0.169131
H 	-2.611321	1.145516	0.405614
H 	-4.639222	2.482356	-0.238575
H 	-4.670291	4.846695	0.143569
H 	-2.506198	6.006894	-0.032790
H 	-0.433379	4.747874	0.155937
O 	2.080000	0.000000	0.000000
H 	2.715106	0.365317	0.680576
H 	2.665511	-0.365317	-0.680576
O 	-0.000000	-2.080000	0.000000
H 	0.341343	-2.715106	0.692911
H 	-0.341343	-2.665511	-0.692911
O 	-2.080000	0.000000	0.000000
H 	-2.715106	-0.316952	0.704401
H 	-2.665511	0.316952	-0.704401
O 	0.000000	0.000000	2.080000
H 	0.715034	-0.292176	2.715106
H 	-0.715034	0.292176	2.665511
O 	0.000000	0.000000	-2.080000
H 	-0.584903	-0.504508	-2.715106
H 	0.584903	0.504508	-2.665511
