22
06/05/2024 22:57, XYZ structure generated by mol3D Class, molSimplify
Fe 	0.000000	0.000000	0.000000
B 	0.000000	2.100000	0.000000
O 	0.969254	2.581681	-1.038523
S 	-0.969254	3.346642	1.038523
C 	-2.046661	2.461970	2.192927
N 	-2.797254	1.845649	2.997162
H 	1.391214	1.795842	-1.490638
O 	2.080000	-0.000000	0.000000
H 	2.715106	0.734684	0.238492
H 	2.665511	-0.734684	-0.238492
O 	-0.000000	-2.080000	0.000000
H 	0.725914	-2.715106	0.263987
H 	-0.725914	-2.665511	-0.263987
O 	-2.080000	0.000000	0.000000
H 	-2.715106	-0.716258	0.289160
H 	-2.665511	0.716258	-0.289160
O 	0.000000	0.000000	2.080000
H 	0.313981	-0.705731	2.715106
H 	-0.313981	0.705731	2.665511
O 	0.000000	-0.000000	-2.080000
H 	-0.749429	-0.187071	-2.715106
H 	0.749429	0.187071	-2.665511
