31
06/06/2024 01:09, XYZ structure generated by mol3D Class, molSimplify
Fe 	0.000000	0.000000	0.000000
B 	0.000000	2.100000	0.000000
C 	-1.381651	2.900000	-0.105080
O 	-1.381651	4.170900	-0.105080
O 	-2.607865	2.190000	-0.198338
C 	-3.834080	2.900000	-0.291597
C 	1.381651	2.900000	0.105080
O 	2.479113	2.264550	0.188546
O 	1.381651	4.320000	0.105080
C 	2.607865	5.030000	0.198338
H 	-3.956853	3.515161	0.575239
H 	-3.824346	3.515159	-1.167031
H 	-4.645021	2.204679	-0.353272
H 	3.101083	4.771508	1.112022
H 	3.233587	4.771509	-0.630247
H 	2.412904	6.081984	0.183511
O 	2.080000	-0.000000	0.000000
H 	2.715106	0.262888	0.726312
H 	2.665511	-0.262888	-0.726312
O 	-0.000000	-2.080000	0.000000
H 	0.237380	-2.715106	0.735045
H 	-0.237380	-2.665511	-0.735045
O 	-2.080000	0.000000	0.000000
H 	-2.715106	-0.159247	0.755831
H 	-2.665511	0.159247	-0.755831
O 	0.000000	0.000000	2.080000
H 	0.760928	-0.132771	2.715106
H 	-0.760928	0.132771	2.665511
O 	0.000000	-0.000000	-2.080000
H 	-0.106135	0.765098	-2.715106
H 	0.106135	-0.765098	-2.665511
