24
06/06/2024 01:58, XYZ structure generated by mol3D Class, molSimplify
Fe 	0.000000	0.000000	0.000000
B 	0.000000	2.100000	0.000000
C 	1.026880	2.937779	-0.896462
O 	1.000568	4.208199	-0.873492
N 	-1.026880	2.837816	0.896462
C 	-1.871264	2.148927	1.633606
H 	1.735758	2.428447	-1.515310
H 	-1.849112	1.079331	1.614267
H 	-2.580142	2.658258	2.252454
O 	2.080000	-0.000000	-0.000000
H 	2.715106	0.346538	-0.690327
H 	2.665511	-0.346538	0.690327
O 	0.000000	-2.080000	0.000000
H 	0.370418	-2.715106	-0.677813
H 	-0.370418	-2.665511	0.677813
O 	-2.080000	0.000000	0.000000
H 	-2.715106	-0.759104	0.142833
H 	-2.665511	0.759104	-0.142833
O 	0.000000	0.000000	2.080000
H 	0.702001	0.322234	2.715106
H 	-0.702001	-0.322234	2.665511
O 	0.000000	-0.000000	-2.080000
H 	0.469065	0.613692	-2.715106
H 	-0.469065	-0.613692	-2.665511
