24
06/06/2024 02:32, XYZ structure generated by mol3D Class, molSimplify
Fe 	0.000000	0.000000	0.000000
B 	-0.000000	2.100000	0.000000
C 	-1.211069	2.694448	-0.860199
O 	-1.358673	3.952386	-0.965039
O 	-2.120973	1.816503	-1.506486
S 	1.211069	3.268533	0.860199
C 	2.457841	2.300314	1.745757
N 	3.326425	1.625788	2.362695
H 	-2.877892	2.188033	-2.044111
O 	2.080000	0.000000	-0.000000
H 	2.715106	0.372474	0.676685
H 	2.665511	-0.372474	-0.676685
O 	-0.000000	-2.080000	0.000000
H 	0.348631	-2.715106	0.689272
H 	-0.348631	-2.665511	-0.689272
O 	-2.080000	0.000000	0.000000
H 	-2.715106	0.069603	0.769282
H 	-2.665511	-0.069603	-0.769282
O 	0.000000	0.000000	2.080000
H 	0.766385	0.096408	2.715106
H 	-0.766385	-0.096408	2.665511
O 	0.000000	-0.000000	-2.080000
H 	0.123096	0.762553	-2.715106
H 	-0.123096	-0.762553	-2.665511
