32
06/06/2024 03:13, XYZ structure generated by mol3D Class, molSimplify
Fe 	0.000000	0.000000	0.000000
B 	0.000000	2.100000	0.000000
O 	-1.294610	2.581681	0.584781
S 	-2.258368	1.237897	1.020115
O 	-2.543612	0.390823	-0.222214
O 	-1.514797	0.390827	2.055417
C 	-3.820531	1.819125	1.725750
S 	1.294610	3.346642	-0.584781
O 	2.511421	2.598614	-1.134420
O 	0.695962	4.225399	-1.685546
C 	1.803344	4.385911	0.807056
F 	0.745904	5.035966	1.284706
F 	2.323584	3.622248	1.763649
F 	2.714365	5.263177	0.395544
H 	-3.621105	2.411349	2.594313
H 	-4.340391	2.411347	1.001928
H 	-4.423584	0.978278	1.998152
O 	2.080000	0.000000	0.000000
H 	2.715106	-0.754663	-0.164694
H 	2.665511	0.754663	0.164694
O 	0.000000	-2.080000	0.000000
H 	-0.748455	-2.715106	-0.190931
H 	0.748455	-2.665511	0.190931
O 	-2.080000	0.000000	0.000000
H 	-2.715106	0.076570	-0.768620
H 	-2.665511	-0.076570	0.768620
O 	0.000000	0.000000	2.080000
H 	-0.493287	-0.594397	2.715106
H 	0.493287	0.594397	2.665511
O 	0.000000	0.000000	-2.080000
H 	0.698029	0.330749	-2.715106
H 	-0.698029	-0.330749	-2.665511
