29
06/06/2024 01:50, XYZ structure generated by mol3D Class, molSimplify
Fe 	0.000000	0.000000	0.000000
B 	0.000000	2.100000	-0.000000
N 	-1.225594	2.875000	-0.547535
C 	-0.807116	3.720125	-1.675161
C 	-2.245733	1.919746	-1.003282
N 	1.225594	2.875000	0.547535
O 	2.308861	2.190000	1.031485
O 	1.225594	4.101150	0.547535
H 	-0.399005	3.104968	-2.449710
H 	-1.653172	4.255123	-2.053138
H 	-0.064566	4.415444	-1.343421
H 	-1.837622	1.304585	-1.777829
H 	-2.550339	1.304587	-0.182493
H 	-3.091788	2.454746	-1.381258
O 	2.080000	-0.000000	-0.000000
H 	2.715106	-0.614100	0.468530
H 	2.665511	0.614100	-0.468530
O 	0.000000	-2.080000	0.000000
H 	-0.630078	-2.715106	0.446813
H 	0.630078	-2.665511	-0.446813
O 	-2.080000	0.000000	0.000000
H 	-2.715106	0.045028	-0.771111
H 	-2.665511	-0.045028	0.771111
O 	0.000000	0.000000	2.080000
H 	-0.772213	0.018090	2.715106
H 	0.772213	-0.018090	2.665511
O 	0.000000	-0.000000	-2.080000
H 	-0.008871	-0.772374	-2.715106
H 	0.008871	0.772374	-2.665511
