41
06/06/2024 03:31, XYZ structure generated by mol3D Class, molSimplify
Fe 	0.000000	0.000000	0.000000
B 	0.000000	2.100000	0.000000
O 	-0.316785	1.618319	-1.384786
C 	-0.554792	2.554950	-2.425206
C 	-1.626219	2.361617	-3.281496
C 	-1.591562	3.178149	-4.436539
C 	-0.855801	4.267642	-4.561746
C 	0.143471	4.435430	-3.643731
C 	0.253995	3.599580	-2.558819
S 	0.316785	0.853358	1.384786
C 	0.668917	1.738030	2.924090
C 	-0.397139	2.298031	3.608552
C 	-0.027979	3.341729	4.489725
C 	1.200256	3.554437	4.925856
C 	2.204291	2.918594	4.249788
C 	1.923448	1.982053	3.284432
H 	-2.409075	1.658577	-3.087144
H 	-2.204089	2.893057	-5.266259
H 	-1.032184	4.980720	-5.339762
H 	0.849569	5.229070	-3.772028
H 	0.998538	3.792177	-1.814869
H 	-1.408106	1.971034	3.482384
H 	-0.797483	4.004760	4.826110
H 	1.398986	4.190179	5.763256
H 	3.223394	3.153708	4.475729
H 	2.722895	1.444485	2.818809
O 	2.080000	-0.000000	0.000000
H 	2.715106	0.133277	0.760840
H 	2.665511	-0.133277	-0.760840
O 	-0.000000	-2.080000	0.000000
H 	0.106643	-2.715106	0.765028
H 	-0.106643	-2.665511	-0.765028
O 	-2.080000	0.000000	0.000000
H 	-2.715106	-0.079879	0.768283
H 	-2.665511	0.079879	-0.768283
O 	0.000000	0.000000	2.080000
H 	0.770603	-0.053018	2.715106
H 	-0.770603	0.053018	2.665511
O 	0.000000	0.000000	-2.080000
H 	-0.771032	-0.046362	-2.715106
H 	0.771032	0.046362	-2.665511
