23
06/06/2024 03:21, XYZ structure generated by mol3D Class, molSimplify
Fe 	0.000000	0.000000	0.000000
B 	0.000000	2.100000	0.000000
N 	0.750449	2.875000	-1.112969
N 	1.365770	2.239550	-2.025532
N 	1.981090	1.604100	-2.938095
N 	-0.750449	2.875000	1.112969
C 	-1.387436	2.217175	2.057665
O 	-2.002756	1.581725	2.970228
O 	2.080000	-0.000000	0.000000
H 	2.715106	-0.716837	0.287724
H 	2.665511	0.716837	-0.287724
O 	0.000000	-2.080000	0.000000
H 	-0.726442	-2.715106	0.262531
H 	0.726442	-2.665511	-0.262531
O 	-2.080000	0.000000	0.000000
H 	-2.715106	0.735161	0.237019
H 	-2.665511	-0.735161	-0.237019
O 	0.000000	0.000000	2.080000
H 	0.211217	0.742985	2.715106
H 	-0.211217	-0.742985	2.665511
O 	0.000000	-0.000000	-2.080000
H 	-0.185159	0.749904	-2.715106
H 	0.185159	-0.749904	-2.665511
