27
06/06/2024 02:08, XYZ structure generated by mol3D Class, molSimplify
Fe 	0.000000	0.000000	0.000000
B 	0.000000	2.100000	0.000000
O 	-1.332438	2.776364	-0.130921
C 	-2.514977	1.998867	-0.247113
O 	-2.444418	0.729946	-0.240180
C 	-3.865180	2.684250	-0.379779
C 	1.332438	2.976053	0.130921
C 	2.418255	3.689957	0.237609
H 	-4.041086	3.295291	0.480794
H 	-3.870225	3.295289	-1.258134
H 	-4.634702	1.944642	-0.455390
H 	3.309323	4.275818	0.325163
O 	2.080000	-0.000000	0.000000
H 	2.715106	-0.664910	0.393109
H 	2.665511	0.664910	-0.393109
O 	-0.000000	-2.080000	0.000000
H 	-0.678224	-2.715106	0.369665
H 	0.678224	-2.665511	-0.369665
O 	-2.080000	0.000000	0.000000
H 	-2.715106	0.115405	-0.763755
H 	-2.665511	-0.115405	0.763755
O 	0.000000	0.000000	2.080000
H 	-0.767317	0.088680	2.715106
H 	0.767317	-0.088680	2.665511
O 	0.000000	-0.000000	-2.080000
H 	0.061847	-0.769945	-2.715106
H 	-0.061847	0.769945	-2.665511
