28
06/06/2024 00:41, XYZ structure generated by mol3D Class, molSimplify
Fe 	0.000000	0.000000	0.000000
B 	0.000000	2.100000	-0.000000
S 	-1.083201	3.268533	1.016517
C 	-2.198335	2.300314	2.063001
C 	1.083201	2.694448	-1.016517
O 	1.811582	1.908687	-1.700058
C 	1.241096	4.198946	-1.164692
H 	-2.819169	1.683352	1.447515
H 	-1.623481	1.683354	2.721640
H 	-2.811575	2.961864	2.638490
H 	0.316245	4.623832	-1.494877
H 	1.511934	4.623831	-0.220754
H 	2.006261	4.408260	-1.882752
O 	2.080000	-0.000000	0.000000
H 	2.715106	-0.751377	0.179089
H 	2.665511	0.751377	-0.179089
O 	-0.000000	-2.080000	0.000000
H 	-0.757169	-2.715106	0.152757
H 	0.757169	-2.665511	-0.152757
O 	-2.080000	0.000000	0.000000
H 	-2.715106	0.664901	-0.393124
H 	-2.665511	-0.664901	0.393124
O 	0.000000	0.000000	2.080000
H 	-0.740256	-0.220593	2.715106
H 	0.740256	0.220593	2.665511
O 	0.000000	-0.000000	-2.080000
H 	0.150219	0.757677	-2.715106
H 	-0.150219	-0.757677	-2.665511
