21
06/06/2024 02:00, XYZ structure generated by mol3D Class, molSimplify
Fe 	0.000000	0.000000	0.000000
B 	0.000000	2.100000	0.000000
F 	0.269230	2.668110	-1.262088
C 	-0.269230	3.045859	1.262088
C 	-0.488629	3.816648	2.290576
H 	-0.668677	4.449191	3.134598
O 	2.080000	0.000000	-0.000000
H 	2.715106	0.018073	0.772213
H 	2.665511	-0.018073	-0.772213
O 	-0.000000	-2.080000	0.000000
H 	-0.008888	-2.715106	0.772374
H 	0.008888	-2.665511	-0.772374
O 	-2.080000	0.000000	0.000000
H 	-2.715106	0.035838	0.771593
H 	-2.665511	-0.035838	-0.771593
O 	0.000000	0.000000	2.080000
H 	0.769872	0.062745	2.715106
H 	-0.769872	-0.062745	2.665511
O 	0.000000	0.000000	-2.080000
H 	-0.772376	0.008674	-2.715106
H 	0.772376	-0.008674	-2.665511
