29
06/05/2024 23:50, XYZ structure generated by mol3D Class, molSimplify
Fe 	0.000000	0.000000	0.000000
B 	0.000000	2.100000	0.000000
O 	-1.116489	1.387173	0.703797
C 	-2.007008	2.340197	1.265151
N 	1.116489	1.287213	-0.703797
C 	2.210647	1.985784	-1.393518
O 	3.126096	1.319351	-1.970586
N 	2.245943	3.455192	-1.415767
H 	-1.478425	2.953502	1.964691
H 	-2.410190	2.953500	0.486559
H 	-2.803437	1.831714	1.767193
H 	1.091998	0.267624	-0.688359
H 	1.511221	3.990058	-0.952623
H 	3.005155	3.939914	-1.894349
O 	2.080000	-0.000000	0.000000
H 	2.715106	0.086360	0.767582
H 	2.665511	-0.086360	-0.767582
O 	0.000000	-2.080000	0.000000
H 	0.059519	-2.715106	0.770128
H 	-0.059519	-2.665511	-0.770128
O 	-2.080000	0.000000	0.000000
H 	-2.715106	-0.032606	0.771736
H 	-2.665511	0.032606	-0.771736
O 	0.000000	0.000000	2.080000
H 	0.772404	-0.005653	2.715106
H 	-0.772404	0.005653	2.665511
O 	0.000000	0.000000	-2.080000
H 	-0.772415	0.003805	-2.715106
H 	0.772415	-0.003805	-2.665511
