39
06/06/2024 02:24, XYZ structure generated by mol3D Class, molSimplify
Fe 	0.000000	0.000000	0.000000
B 	0.000000	2.100000	0.000000
N 	-0.360549	2.837816	-1.314584
C 	0.770222	3.680482	-1.729520
C 	-0.649023	1.852216	-2.366380
C 	0.360549	2.937779	1.314584
C 	0.673197	1.982164	2.454519
C 	1.572361	3.813531	1.040782
C 	-0.821391	3.813532	1.697304
H 	1.632219	3.067115	-1.889655
H 	0.521328	4.189811	-2.637008
H 	0.980196	4.397890	-0.963924
H 	0.212970	1.238845	-2.526514
H 	-1.472102	1.238848	-2.064352
H 	-0.897918	2.361548	-3.273867
H 	1.505221	1.365680	2.185105
H 	0.914312	2.542430	3.333647
H 	-0.179856	1.365681	2.647260
H 	1.352278	4.486236	0.238328
H 	1.813477	4.373798	1.919909
H 	2.404382	3.197043	0.771368
H 	-1.041479	4.486234	0.894850
H 	-1.674443	3.197048	1.890046
H 	-0.580274	4.373796	2.576432
O 	2.080000	-0.000000	-0.000000
H 	2.715106	-0.261939	0.726655
H 	2.665511	0.261939	-0.726655
O 	0.000000	-2.080000	0.000000
H 	-0.287139	-2.715106	0.717071
H 	0.287139	-2.665511	-0.717071
O 	-2.080000	0.000000	0.000000
H 	-2.715106	0.311990	0.706613
H 	-2.665511	-0.311990	-0.706613
O 	0.000000	0.000000	2.080000
H 	-0.772034	-0.024570	2.715106
H 	0.772034	0.024570	2.665511
O 	0.000000	-0.000000	-2.080000
H 	-0.772192	-0.018972	-2.715106
H 	0.772192	0.018972	-2.665511
