24
06/05/2024 23:07, XYZ structure generated by mol3D Class, molSimplify
Fe 	0.000000	0.000000	0.000000
B 	0.000000	2.100000	0.000000
O 	0.526576	2.776364	-1.230955
C 	-0.526576	2.976053	1.230955
O 	-0.972726	2.402992	2.273901
N 	-0.494323	4.443764	1.155559
H 	0.810793	2.085142	-1.895358
H 	-0.136251	4.903692	0.318509
H 	-0.830015	5.002248	1.940292
O 	2.080000	0.000000	0.000000
H 	2.715106	-0.663878	0.394850
H 	2.665511	0.663878	-0.394850
O 	-0.000000	-2.080000	0.000000
H 	-0.677253	-2.715106	0.371440
H 	0.677253	-2.665511	-0.371440
O 	-2.080000	0.000000	0.000000
H 	-2.715106	0.689804	0.347578
H 	-2.665511	-0.689804	-0.347578
O 	0.000000	0.000000	2.080000
H 	0.323293	0.701514	2.715106
H 	-0.323293	-0.701514	2.665511
O 	0.000000	0.000000	-2.080000
H 	0.757002	0.153582	-2.715106
H 	-0.757002	-0.153582	-2.665511
