26
06/06/2024 00:27, XYZ structure generated by mol3D Class, molSimplify
Fe 	0.000000	0.000000	0.000000
B 	0.000000	2.100000	0.000000
O 	-0.164623	2.776364	1.328695
C 	-0.310727	1.998867	2.507912
O 	-0.302009	0.729946	2.437552
C 	-0.477545	2.684250	3.854323
C 	0.164623	2.976053	-1.328695
N 	0.294364	3.666474	-2.375844
H 	0.378297	3.295291	4.051967
H 	-1.355745	3.295289	3.837121
H 	-0.572620	1.944642	4.621682
O 	2.080000	0.000000	0.000000
H 	2.715106	-0.703344	-0.319291
H 	2.665511	0.703344	0.319291
O 	-0.000000	-2.080000	0.000000
H 	-0.691773	-2.715106	-0.343642
H 	0.691773	-2.665511	0.343642
O 	-2.080000	0.000000	0.000000
H 	-2.715106	0.679359	-0.367576
H 	-2.665511	-0.679359	0.367576
O 	0.000000	0.000000	2.080000
H 	-0.770914	0.048283	2.715106
H 	0.770914	-0.048283	2.665511
O 	0.000000	-0.000000	-2.080000
H 	0.262069	0.726608	-2.715106
H 	-0.262069	-0.726608	-2.665511
