23
06/06/2024 01:28, XYZ structure generated by mol3D Class, molSimplify
Fe 	0.000000	0.000000	0.000000
B 	0.000000	2.100000	-0.000000
O 	-1.085963	2.918414	0.633153
C 	-2.059676	2.054707	1.200861
F 	1.085963	2.738672	-0.633153
H 	-2.479244	1.437395	0.434188
H 	-1.599167	1.437397	1.943667
H 	-2.834329	2.638509	1.652511
O 	2.080000	0.000000	0.000000
H 	2.715106	0.522393	0.568987
H 	2.665511	-0.522393	-0.568987
O 	-0.000000	-2.080000	0.000000
H 	0.502217	-2.715106	0.586871
H 	-0.502217	-2.665511	-0.586871
O 	-2.080000	0.000000	0.000000
H 	-2.715106	-0.345322	0.690936
H 	-2.665511	0.345322	-0.690936
O 	0.000000	0.000000	2.080000
H 	0.708657	0.307319	2.715106
H 	-0.708657	-0.307319	2.665511
O 	0.000000	-0.000000	-2.080000
H 	-0.398477	-0.661707	-2.715106
H 	0.398477	0.661707	-2.665511
