26
06/06/2024 03:24, XYZ structure generated by mol3D Class, molSimplify
Fe 	0.000000	0.000000	0.000000
B 	0.000000	2.100000	0.000000
N 	-0.442230	2.837816	1.289403
C 	-1.610350	3.680482	0.995618
C 	0.442230	2.937779	-1.289403
O 	0.804829	2.332817	-2.346630
H 	-0.687742	2.153931	2.005241
H 	-2.412882	3.067115	0.642598
H 	-1.915633	4.189811	1.885722
H 	-1.352798	4.397890	0.244689
H 	0.432690	4.007375	-1.261587
O 	2.080000	-0.000000	0.000000
H 	2.715106	0.154315	-0.756853
H 	2.665511	-0.154315	0.756853
O 	-0.000000	-2.080000	0.000000
H 	0.180635	-2.715106	-0.751007
H 	-0.180635	-2.665511	0.751007
O 	-2.080000	0.000000	0.000000
H 	-2.715106	-0.206735	-0.744245
H 	-2.665511	0.206735	0.744245
O 	0.000000	0.000000	2.080000
H 	-0.736577	-0.232583	2.715106
H 	0.736577	0.232583	2.665511
O 	0.000000	-0.000000	-2.080000
H 	-0.723622	-0.270204	-2.715106
H 	0.723622	0.270204	-2.665511
