26
06/06/2024 02:37, XYZ structure generated by mol3D Class, molSimplify
Fe 	0.000000	0.000000	0.000000
B 	0.000000	2.100000	0.000000
S 	-1.485423	3.268533	-0.012248
C 	1.485423	2.694448	0.012248
O 	2.484272	1.908687	0.020483
O 	1.687704	4.099965	0.013915
C 	3.006017	4.627538	0.024785
H 	-2.634445	2.541031	-0.021721
H 	3.517336	4.291752	0.902680
H 	3.531741	4.291753	-0.844561
H 	2.962350	5.696647	0.024425
O 	2.080000	0.000000	0.000000
H 	2.715106	0.092621	0.766851
H 	2.665511	-0.092621	-0.766851
O 	0.000000	-2.080000	0.000000
H 	0.065802	-2.715106	0.769617
H 	-0.065802	-2.665511	-0.769617
O 	-2.080000	0.000000	0.000000
H 	-2.715106	-0.038903	0.771444
H 	-2.665511	0.038903	-0.771444
O 	0.000000	0.000000	2.080000
H 	0.772332	-0.011956	2.715106
H 	-0.772332	0.011956	2.665511
O 	0.000000	-0.000000	-2.080000
H 	-0.770397	-0.055924	-2.715106
H 	0.770397	0.055924	-2.665511
