42
06/06/2024 02:16, XYZ structure generated by mol3D Class, molSimplify
Fe 	0.000000	0.000000	0.000000
B 	0.000000	2.100000	0.000000
N 	-1.026619	2.637386	-1.029451
C 	-1.201770	4.086308	-1.205085
C 	-2.448415	4.689188	-1.173831
C 	-2.430974	6.060426	-1.522330
C 	-1.349370	6.818134	-1.527671
C 	-0.148956	6.164750	-1.488349
C 	-0.089549	4.807595	-1.282204
S 	1.026619	3.307636	1.029451
C 	2.124288	2.380441	2.130147
C 	3.268220	1.819189	1.587025
C 	3.801306	0.753099	2.349470
C 	3.506577	0.516690	3.614880
C 	2.403894	1.154330	4.111826
C 	1.751176	2.113981	3.376352
H 	-1.580668	1.985646	-1.585027
H 	-3.343431	4.165471	-0.910075
H 	-3.358647	6.515081	-1.800918
H 	-1.409218	7.885940	-1.560979
H 	0.757236	6.718269	-1.620004
H 	0.861570	4.327580	-1.182912
H 	3.708802	2.160826	0.673750
H 	4.491211	0.092509	1.867233
H 	4.098856	-0.138612	4.218773
H 	2.044084	0.902384	5.087510
H 	0.934816	2.651464	3.811747
O 	2.080000	-0.000000	-0.000000
H 	2.715106	0.010569	-0.772352
H 	2.665511	-0.010569	0.772352
O 	-0.000000	-2.080000	0.000000
H 	0.037518	-2.715106	-0.771513
H 	-0.037518	-2.665511	0.771513
O 	-2.080000	0.000000	0.000000
H 	-2.715106	-0.064420	-0.769734
H 	-2.665511	0.064420	0.769734
O 	0.000000	0.000000	2.080000
H 	-0.767017	-0.091244	2.715106
H 	0.767017	0.091244	2.665511
O 	0.000000	-0.000000	-2.080000
H 	0.763365	-0.117957	-2.715106
H 	-0.763365	0.117957	-2.665511
