35
06/06/2024 01:00, XYZ structure generated by mol3D Class, molSimplify
Fe 	0.000000	0.000000	0.000000
B 	0.000000	2.100000	0.000000
C 	-0.827499	2.976053	1.052509
C 	-0.927464	2.601692	2.382331
C 	-2.008701	3.204275	3.067803
C 	-2.654630	4.278071	2.650966
C 	-2.460892	4.635781	1.345608
C 	-1.514398	4.006571	0.573509
O 	0.827499	2.776364	-1.052509
C 	1.561905	1.998867	-1.986611
O 	1.518085	0.729946	-1.930877
C 	2.400438	2.684250	-3.053154
H 	-0.248625	1.918774	2.848915
H 	-2.324996	2.758966	3.987888
H 	-3.295143	4.838039	3.299872
H 	-3.054903	5.416951	0.919198
H 	-1.329145	4.350086	-0.422774
H 	1.769827	3.295291	-3.664595
H 	3.143427	3.295289	-2.584648
H 	2.878342	1.944642	-3.661009
O 	2.080000	0.000000	0.000000
H 	2.715106	0.739604	-0.222770
H 	2.665511	-0.739604	0.222770
O 	0.000000	-2.080000	0.000000
H 	0.746928	-2.715106	-0.196822
H 	-0.746928	-2.665511	0.196822
O 	-2.080000	0.000000	0.000000
H 	-2.715106	-0.753342	-0.170635
H 	-2.665511	0.753342	0.170635
O 	0.000000	0.000000	2.080000
H 	0.766270	0.097314	2.715106
H 	-0.766270	-0.097314	2.665511
O 	0.000000	-0.000000	-2.080000
H 	-0.590403	0.498061	-2.715106
H 	0.590403	-0.498061	-2.665511
