27
06/06/2024 01:20, XYZ structure generated by mol3D Class, molSimplify
Fe 	0.000000	0.000000	0.000000
B 	0.000000	2.100000	-0.000000
N 	0.265696	2.837816	-1.336986
C 	1.462625	3.680482	-1.202169
C 	-0.265696	2.937779	1.336986
O 	-0.483549	2.332817	2.433229
O 	-0.258089	4.357242	1.298710
H 	0.413202	2.153931	-2.079241
H 	2.305182	3.067115	-0.959725
H 	1.646042	4.189811	-2.125122
H 	1.307883	4.397890	-0.423528
H 	-0.424149	4.880854	2.134326
O 	2.080000	0.000000	0.000000
H 	2.715106	0.450171	-0.627683
H 	2.665511	-0.450171	0.627683
O 	-0.000000	-2.080000	0.000000
H 	0.471803	-2.715106	-0.611590
H 	-0.471803	-2.665511	0.611590
O 	-2.080000	0.000000	0.000000
H 	-2.715106	-0.492859	-0.594752
H 	-2.665511	0.492859	0.594752
O 	0.000000	0.000000	2.080000
H 	-0.577189	-0.513316	2.715106
H 	0.577189	0.513316	2.665511
O 	0.000000	-0.000000	-2.080000
H 	-0.754544	-0.165236	-2.715106
H 	0.754544	0.165236	-2.665511
