24
06/06/2024 00:13, XYZ structure generated by mol3D Class, molSimplify
Fe 	0.000000	0.000000	0.000000
B 	0.000000	2.100000	0.000000
C 	-1.329459	2.900000	0.390563
C 	1.329459	2.900000	-0.390563
C 	2.412848	3.551928	-0.708836
H 	-1.137592	3.515161	1.244766
H 	-1.630094	3.515159	-0.431689
H 	-2.109766	2.204679	0.619798
H 	3.301924	4.086928	-0.970025
O 	2.080000	0.000000	0.000000
H 	2.715106	-0.764415	-0.110951
H 	2.665511	0.764415	0.110951
O 	-0.000000	-2.080000	0.000000
H 	-0.760077	-2.715106	-0.137561
H 	0.760077	-2.665511	0.137561
O 	-2.080000	0.000000	0.000000
H 	-2.715106	0.571685	-0.519438
H 	-2.665511	-0.571685	0.519438
O 	0.000000	0.000000	2.080000
H 	-0.539073	0.553209	2.715106
H 	0.539073	-0.553209	2.665511
O 	0.000000	0.000000	-2.080000
H 	0.295824	0.713532	-2.715106
H 	-0.295824	-0.713532	-2.665511
