22
06/06/2024 00:59, XYZ structure generated by mol3D Class, molSimplify
Fe 	0.000000	0.000000	0.000000
B 	0.000000	2.100000	0.000000
N 	-1.363122	2.837816	-0.004955
N 	-2.445867	2.172358	-0.008891
N 	-3.528612	1.506900	-0.012826
C 	1.363122	2.937779	0.004955
N 	2.437404	3.598035	0.008860
O 	2.080000	0.000000	0.000000
H 	2.715106	-0.574346	-0.516495
H 	2.665511	0.574346	0.516495
O 	-0.000000	-2.080000	0.000000
H 	-0.555970	-2.715106	-0.536225
H 	0.555970	-2.665511	0.536225
O 	-2.080000	0.000000	0.000000
H 	-2.715106	-0.026476	-0.771971
H 	-2.665511	0.026476	0.771971
O 	0.000000	0.000000	2.080000
H 	-0.770577	-0.053401	2.715106
H 	0.770577	0.053401	2.665511
O 	0.000000	0.000000	-2.080000
H 	0.771398	-0.039810	-2.715106
H 	-0.771398	0.039810	-2.665511
