33
06/06/2024 01:39, XYZ structure generated by mol3D Class, molSimplify
Fe 	0.000000	0.000000	0.000000
B 	0.000000	2.100000	-0.000000
O 	-1.298288	1.423636	0.327075
C 	-2.450519	2.201133	0.617355
C 	-3.246504	1.858967	1.698048
C 	-4.502460	2.510404	1.713995
C 	-4.792490	3.595004	1.018624
C 	-3.930160	3.918067	0.007947
C 	-2.744522	3.242450	-0.152360
C 	1.298288	1.223947	-0.327075
O 	2.398285	1.797008	-0.604195
O 	1.221473	-0.193842	-0.307723
H 	-2.939477	1.164981	2.452380
H 	-5.270669	2.095394	2.332478
H 	-5.655881	4.189008	1.234531
H 	-4.182257	4.708394	-0.667871
H 	-2.051839	3.558277	-0.904253
H 	2.032903	-0.741375	-0.512145
O 	2.080000	0.000000	0.000000
H 	2.715106	0.122131	0.762708
H 	2.665511	-0.122131	-0.762708
O 	0.000000	-2.080000	0.000000
H 	0.095439	-2.715106	0.766506
H 	-0.095439	-2.665511	-0.766506
O 	-2.080000	0.000000	0.000000
H 	-2.715106	-0.068630	0.769370
H 	-2.665511	0.068630	-0.769370
O 	0.000000	0.000000	2.080000
H 	0.771296	-0.041738	2.715106
H 	-0.771296	0.041738	2.665511
O 	0.000000	-0.000000	-2.080000
H 	-0.770441	-0.055327	-2.715106
H 	0.770441	0.055327	-2.665511
