31
06/05/2024 22:57, XYZ structure generated by mol3D Class, molSimplify
Fe 	0.000000	0.000000	0.000000
B 	0.000000	2.100000	0.000000
N 	-1.271118	2.912787	-0.355157
C 	-0.999999	3.759782	-1.525624
O 	1.271118	2.812827	0.355157
S 	2.492026	1.665171	0.696284
O 	2.053655	0.787945	1.871266
O 	2.726189	0.787948	-0.535757
C 	4.025842	2.525316	1.124840
H 	-2.035617	2.272229	-0.568761
H 	-0.727147	3.143264	-2.356502
H 	-1.877482	4.320865	-1.770799
H 	-0.198025	4.431737	-1.301544
H 	4.332325	3.138621	0.303362
H 	3.862129	3.138618	1.986210
H 	4.789802	1.807192	1.338294
O 	2.080000	-0.000000	-0.000000
H 	2.715106	0.494324	0.593534
H 	2.665511	-0.494324	-0.593534
O 	-0.000000	-2.080000	0.000000
H 	0.473309	-2.715106	0.610425
H 	-0.473309	-2.665511	-0.610425
O 	-2.080000	0.000000	0.000000
H 	-2.715106	-0.286718	0.717239
H 	-2.665511	0.286718	-0.717239
O 	0.000000	0.000000	2.080000
H 	0.131330	0.761178	2.715106
H 	-0.131330	-0.761178	2.665511
O 	0.000000	0.000000	-2.080000
H 	0.196307	-0.747063	-2.715106
H 	-0.196307	0.747063	-2.665511
