26
06/06/2024 01:20, XYZ structure generated by mol3D Class, molSimplify
Fe 	0.000000	0.000000	0.000000
B 	0.000000	2.100000	0.000000
S 	-1.413151	3.346642	-0.144868
O 	1.413151	2.581681	0.144868
C 	2.474884	1.645050	0.253711
O 	2.227819	0.398654	0.228384
C 	3.906877	2.133154	0.400511
F 	4.235006	2.869282	-0.657480
F 	4.013517	2.869279	1.503075
F 	4.725103	1.087988	0.484391
H 	-2.593448	2.681916	-0.265866
O 	2.080000	-0.000000	0.000000
H 	2.715106	0.703684	-0.318541
H 	2.665511	-0.703684	0.318541
O 	-0.000000	-2.080000	0.000000
H 	0.714373	-2.715106	-0.293788
H 	-0.714373	-2.665511	0.293788
O 	-2.080000	0.000000	0.000000
H 	-2.715106	-0.611615	0.471771
H 	-2.665511	0.611615	-0.471771
O 	0.000000	0.000000	2.080000
H 	0.492828	-0.594777	2.715106
H 	-0.492828	0.594777	2.665511
O 	0.000000	0.000000	-2.080000
H 	-0.513285	-0.577216	-2.715106
H 	0.513285	0.577216	-2.665511
