35
06/06/2024 01:49, XYZ structure generated by mol3D Class, molSimplify
Fe 	0.000000	0.000000	0.000000
B 	0.000000	2.100000	0.000000
N 	-0.152705	2.637386	1.445821
C 	-1.369357	3.457253	1.537898
S 	0.152705	3.307636	-1.445821
C 	0.315979	2.380441	-2.991703
C 	0.910299	2.932137	-4.114636
C 	0.716705	2.176791	-5.295325
C 	0.342222	0.910657	-5.321460
C 	-0.173933	0.405076	-4.160676
C 	-0.139626	1.133185	-2.995955
H 	-0.221221	1.853243	2.094531
H 	-2.221406	2.860481	1.287349
H 	-1.474774	3.828220	2.535982
H 	-1.297477	4.279833	0.857387
H 	1.465442	3.846563	-4.091353
H 	0.885460	2.665429	-6.232157
H 	0.437605	0.312621	-6.203591
H 	-0.610868	-0.571646	-4.159272
H 	-0.483152	0.691148	-2.084093
O 	2.080000	-0.000000	0.000000
H 	2.715106	-0.698029	0.330750
H 	2.665511	0.698029	-0.330750
O 	-0.000000	-2.080000	0.000000
H 	-0.709147	-2.715106	0.306187
H 	0.709147	-2.665511	-0.306187
O 	-2.080000	0.000000	0.000000
H 	-2.715106	0.719401	0.281252
H 	-2.665511	-0.719401	-0.281252
O 	0.000000	0.000000	2.080000
H 	-0.757310	0.152056	2.715106
H 	0.757310	-0.152056	2.665511
O 	0.000000	-0.000000	-2.080000
H 	-0.461046	-0.619739	-2.715106
H 	0.461046	0.619739	-2.665511
