31
06/06/2024 02:57, XYZ structure generated by mol3D Class, molSimplify
Fe 	0.000000	0.000000	0.000000
B 	0.000000	2.100000	0.000000
N 	1.214656	2.912787	-0.516224
C 	1.176258	4.382195	-0.499904
O 	2.172198	5.048628	-0.923174
N 	-0.014106	5.080766	0.005995
O 	-1.214656	2.812827	0.516224
C 	-2.327438	2.068210	0.989151
O 	-2.294240	0.797822	0.975042
C 	-3.558290	2.790541	1.512257
H 	2.040623	2.428064	-0.867256
H 	-0.813428	4.545899	0.345703
H 	-0.040750	6.100355	0.017318
H 	-3.284788	3.403846	2.345297
H 	-3.968222	3.403844	0.737199
H 	-4.288316	2.072417	1.822515
O 	2.080000	-0.000000	0.000000
H 	2.715106	0.748856	0.189352
H 	2.665511	-0.748856	-0.189352
O 	0.000000	-2.080000	0.000000
H 	0.741792	-2.715106	0.215372
H 	-0.741792	-2.665511	-0.215372
O 	-2.080000	0.000000	0.000000
H 	-2.715106	-0.724961	0.266592
H 	-2.665511	0.724961	-0.266592
O 	0.000000	0.000000	2.080000
H 	0.291730	-0.715216	2.715106
H 	-0.291730	0.715216	2.665511
O 	0.000000	-0.000000	-2.080000
H 	0.075569	-0.768719	-2.715106
H 	-0.075569	0.768719	-2.665511
