26
06/06/2024 01:51, XYZ structure generated by mol3D Class, molSimplify
Fe 	0.000000	0.000000	0.000000
B 	0.000000	2.100000	0.000000
N 	-1.342465	2.637386	0.558124
O 	-1.960658	3.401480	-0.396286
S 	1.342465	3.307636	-0.558124
C 	2.777839	2.380441	-1.154875
H 	-1.944803	1.853243	0.808543
H 	-1.370128	4.170246	-0.641792
H 	3.157483	1.764536	-0.366566
H 	2.486711	1.764538	-1.979986
H 	3.537860	3.064129	-1.470850
O 	2.080000	0.000000	0.000000
H 	2.715106	-0.166168	-0.754340
H 	2.665511	0.166168	0.754340
O 	-0.000000	-2.080000	0.000000
H 	-0.139741	-2.715106	-0.759679
H 	0.139741	-2.665511	0.759679
O 	-2.080000	0.000000	0.000000
H 	-2.715106	0.113143	-0.764093
H 	-2.665511	-0.113143	0.764093
O 	0.000000	0.000000	2.080000
H 	-0.767576	0.086408	2.715106
H 	0.767576	-0.086408	2.665511
O 	0.000000	0.000000	-2.080000
H 	0.746857	0.197091	-2.715106
H 	-0.746857	-0.197091	-2.665511
