26
06/06/2024 00:01, XYZ structure generated by mol3D Class, molSimplify
Fe 	0.000000	0.000000	0.000000
B 	0.000000	2.100000	0.000000
O 	-0.366692	2.776364	-1.287660
C 	0.366692	2.976053	1.287660
O 	0.677379	2.402992	2.378651
O 	0.344996	4.393842	1.211473
C 	0.670436	5.171339	2.354271
H 	-0.564613	2.085142	-1.982670
H 	-0.012424	4.944550	3.146211
H 	1.668064	4.944550	2.667649
H 	0.600895	6.210777	2.110075
O 	2.080000	0.000000	0.000000
H 	2.715106	0.326963	0.699811
H 	2.665511	-0.326963	-0.699811
O 	0.000000	-2.080000	0.000000
H 	0.302340	-2.715106	0.710795
H 	-0.302340	-2.665511	-0.710795
O 	-2.080000	0.000000	0.000000
H 	-2.715106	-0.277350	0.720914
H 	-2.665511	0.277350	-0.720914
O 	0.000000	0.000000	2.080000
H 	0.730154	-0.252021	2.715106
H 	-0.730154	0.252021	2.665511
O 	0.000000	-0.000000	-2.080000
H 	-0.770975	0.047301	-2.715106
H 	0.770975	-0.047301	-2.665511
