34
06/06/2024 02:47, XYZ structure generated by mol3D Class, molSimplify
Fe 	0.000000	0.000000	0.000000
B 	0.000000	2.100000	-0.000000
N 	-0.319679	2.912787	-1.280501
C 	0.831785	3.759782	-1.623472
C 	-0.596771	1.989630	-2.390411
O 	0.319679	2.812827	1.280501
S 	0.626731	1.665171	2.510421
O 	-0.611342	0.787945	2.710239
O 	1.813449	0.787948	2.104886
C 	1.012478	2.525316	4.055558
H 	1.688917	3.143264	-1.797054
H 	0.611104	4.320865	-2.507432
H 	1.033474	4.431737	-0.815575
H 	0.260358	1.373108	-2.563993
H 	-1.434912	1.373110	-2.140765
H 	-0.817453	2.550716	-3.274370
H 	1.878065	3.138621	3.915857
H 	0.182795	3.138618	4.339084
H 	1.204610	1.807192	4.825158
O 	2.080000	-0.000000	-0.000000
H 	2.715106	-0.422426	0.646681
H 	2.665511	0.422426	-0.646681
O 	0.000000	-2.080000	0.000000
H 	-0.444737	-2.715106	0.631545
H 	0.444737	-2.665511	-0.631545
O 	-2.080000	0.000000	0.000000
H 	-2.715106	0.466507	0.615639
H 	-2.665511	-0.466507	-0.615639
O 	0.000000	0.000000	2.080000
H 	0.598983	0.487708	2.715106
H 	-0.598983	-0.487708	2.665511
O 	0.000000	0.000000	-2.080000
H 	0.772268	-0.015549	-2.715106
H 	-0.772268	0.015549	-2.665511
