34
06/06/2024 03:24, XYZ structure generated by mol3D Class, molSimplify
Fe 	0.000000	0.000000	0.000000
B 	0.000000	2.100000	0.000000
C 	-1.349666	2.937779	-0.191125
C 	-1.579593	3.813535	1.029770
C 	-1.231571	3.813532	-1.427858
C 	-2.520016	1.982157	-0.356857
N 	1.349666	2.837816	0.191125
C 	2.459471	2.148927	0.348283
H 	-0.755728	4.486243	1.146436
H 	-2.482183	4.373798	0.901955
H 	-1.662726	3.197050	1.900364
H 	-1.069714	3.197050	-2.287307
H 	-2.134161	4.373794	-1.555675
H 	-0.407705	4.486238	-1.311187
H 	-2.358160	1.365670	-1.216302
H 	-2.603149	1.365673	0.513738
H 	-3.422605	2.542421	-0.484672
H 	2.430355	1.079331	0.344160
H 	3.391176	2.658258	0.480221
O 	2.080000	-0.000000	-0.000000
H 	2.715106	-0.002788	0.772420
H 	2.665511	0.002788	-0.772420
O 	0.000000	-2.080000	0.000000
H 	-0.029743	-2.715106	0.771852
H 	0.029743	-2.665511	-0.771852
O 	-2.080000	0.000000	0.000000
H 	-2.715106	0.051100	-0.770732
H 	-2.665511	-0.051100	0.770732
O 	0.000000	0.000000	2.080000
H 	-0.772046	0.024171	2.715106
H 	0.772046	-0.024171	2.665511
O 	0.000000	0.000000	-2.080000
H 	0.769504	0.067105	-2.715106
H 	-0.769504	-0.067105	-2.665511
