22
06/06/2024 02:12, XYZ structure generated by mol3D Class, molSimplify
Fe 	0.000000	0.000000	0.000000
B 	0.000000	2.100000	0.000000
F 	-0.016646	2.668110	-1.290378
C 	0.016646	3.045859	1.290378
Cl 	0.035616	2.043060	2.760900
Cl 	1.469664	4.073393	1.254146
Cl 	-1.436823	4.073392	1.291630
O 	2.080000	0.000000	0.000000
H 	2.715106	-0.534766	0.557373
H 	2.665511	0.534766	-0.557373
O 	0.000000	-2.080000	0.000000
H 	-0.553892	-2.715106	0.538371
H 	0.553892	-2.665511	-0.538371
O 	-2.080000	0.000000	0.000000
H 	-2.715106	0.572344	0.518712
H 	-2.665511	-0.572344	-0.518712
O 	0.000000	0.000000	2.080000
H 	-0.764555	0.109982	2.715106
H 	0.764555	-0.109982	2.665511
O 	0.000000	0.000000	-2.080000
H 	-0.020561	-0.772151	-2.715106
H 	0.020561	0.772151	-2.665511
