32
06/06/2024 01:25, XYZ structure generated by mol3D Class, molSimplify
Fe 	0.000000	0.000000	0.000000
B 	0.000000	2.100000	-0.000000
N 	-1.219239	2.912787	0.505306
C 	-1.180695	4.382195	0.489332
C 	-1.681171	5.101208	1.562229
C 	-1.919658	6.466274	1.276275
C 	-1.405218	7.117241	0.248847
C 	-0.864743	6.352011	-0.747024
C 	-0.718427	4.994352	-0.594556
O 	1.219239	2.812827	-0.505306
H 	-2.048321	2.428064	0.848914
H 	-1.870282	4.664020	2.520355
H 	-2.561455	7.008859	1.938542
H 	-1.411051	8.186038	0.198450
H 	-0.551210	6.817123	-1.658215
H 	-0.227537	4.425197	-1.356127
H 	1.904080	2.141683	-0.789134
O 	2.080000	-0.000000	0.000000
H 	2.715106	-0.630248	-0.446573
H 	2.665511	0.630248	0.446573
O 	0.000000	-2.080000	0.000000
H 	-0.614278	-2.715106	-0.468297
H 	0.614278	-2.665511	0.468297
O 	-2.080000	0.000000	0.000000
H 	-2.715106	0.597561	-0.489449
H 	-2.665511	-0.597561	0.489449
O 	0.000000	0.000000	2.080000
H 	-0.510006	0.580115	2.715106
H 	0.510006	-0.580115	2.665511
O 	0.000000	0.000000	-2.080000
H 	0.258859	0.727758	-2.715106
H 	-0.258859	-0.727758	-2.665511
