28
06/05/2024 23:06, XYZ structure generated by mol3D Class, molSimplify
Fe 	0.000000	0.000000	0.000000
B 	0.000000	2.100000	0.000000
O 	-0.353470	2.776364	1.291352
C 	-0.667175	1.998867	2.437427
O 	-0.648457	0.729946	2.369044
C 	-1.025358	2.684250	3.745997
F 	-0.007782	3.443768	4.141687
F 	-2.102602	3.443766	3.568291
F 	-1.279101	1.764924	4.673011
C 	0.353470	2.976053	-1.291352
Cl 	0.727139	1.896635	-2.656500
Cl 	-1.038545	4.003067	-1.710798
Cl 	1.765051	4.003068	-0.943385
O 	2.080000	0.000000	0.000000
H 	2.715106	0.641137	-0.430793
H 	2.665511	-0.641137	0.430793
O 	0.000000	-2.080000	0.000000
H 	0.655781	-2.715106	-0.408155
H 	-0.655781	-2.665511	0.408155
O 	-2.080000	0.000000	0.000000
H 	-2.715106	-0.669626	-0.385020
H 	-2.665511	0.669626	0.385020
O 	0.000000	0.000000	2.080000
H 	-0.361416	-0.682655	2.715106
H 	0.361416	0.682655	2.665511
O 	0.000000	0.000000	-2.080000
H 	-0.744777	0.204811	-2.715106
H 	0.744777	-0.204811	-2.665511
