23
06/06/2024 02:12, XYZ structure generated by mol3D Class, molSimplify
Fe 	0.000000	0.000000	0.000000
B 	0.000000	2.100000	-0.000000
N 	-1.339234	2.637386	0.565833
C 	-2.271490	1.796737	0.959716
S 	-3.419370	0.761653	1.444702
S 	1.339234	3.307636	-0.565833
C 	2.771154	2.380441	-1.170827
N 	3.768724	1.734495	-1.592305
O 	2.080000	-0.000000	0.000000
H 	2.715106	-0.758735	-0.144778
H 	2.665511	0.758735	0.144778
O 	-0.000000	-2.080000	0.000000
H 	-0.753220	-2.715106	-0.171169
H 	0.753220	-2.665511	0.171169
O 	-2.080000	0.000000	0.000000
H 	-2.715106	0.634253	-0.440866
H 	-2.665511	-0.634253	0.440866
O 	0.000000	0.000000	2.080000
H 	-0.462733	0.618481	2.715106
H 	0.462733	-0.618481	2.665511
O 	0.000000	-0.000000	-2.080000
H 	0.484036	0.601955	-2.715106
H 	-0.484036	-0.601955	-2.665511
