31
06/05/2024 22:40, XYZ structure generated by mol3D Class, molSimplify
Fe 	0.000000	0.000000	0.000000
B 	0.000000	2.100000	0.000000
C 	-1.296895	2.900000	-0.487918
C 	-2.533989	2.519763	0.005622
C 	-3.626907	3.124981	-0.658676
C 	-3.539388	4.204334	-1.414556
C 	-2.282903	4.567284	-1.813258
C 	-1.171542	3.936603	-1.308272
C 	1.296895	2.900000	0.487918
O 	2.327035	2.264550	0.875477
Cl 	1.296895	4.680000	0.487918
H 	-2.652412	1.830856	0.815735
H 	-4.591373	2.676977	-0.540366
H 	-4.405203	4.764683	-1.699643
H 	-2.163354	5.353778	-2.528825
H 	-0.196222	4.283909	-1.578511
O 	2.080000	0.000000	0.000000
H 	2.715106	-0.207671	-0.743984
H 	2.665511	0.207671	0.743984
O 	0.000000	-2.080000	0.000000
H 	-0.181580	-2.715106	-0.750779
H 	0.181580	-2.665511	0.750779
O 	-2.080000	0.000000	0.000000
H 	-2.715106	-0.357816	0.684549
H 	-2.665511	0.357816	-0.684549
O 	0.000000	0.000000	2.080000
H 	0.696620	-0.333708	2.715106
H 	-0.696620	0.333708	2.665511
O 	0.000000	0.000000	-2.080000
H 	-0.309193	0.707842	-2.715106
H 	0.309193	-0.707842	-2.665511
