28
06/05/2024 22:39, XYZ structure generated by mol3D Class, molSimplify
Fe 	0.000000	0.000000	0.000000
B 	0.000000	2.100000	0.000000
C 	-1.472984	2.694448	0.192225
O 	-1.652509	3.952386	0.215653
O 	-2.579670	1.816503	0.336648
S 	1.472984	3.268533	-0.192225
O 	2.755191	2.449860	-0.359553
O 	1.266564	4.150986	-1.425490
C 	1.611328	4.312173	1.280112
F 	0.497058	5.023620	1.425524
F 	1.790713	3.545299	2.351851
F 	2.647872	5.134474	1.144842
H 	-3.500285	2.188033	0.456788
O 	2.080000	-0.000000	0.000000
H 	2.715106	-0.557314	-0.534828
H 	2.665511	0.557314	0.534828
O 	-0.000000	-2.080000	0.000000
H 	-0.538309	-2.715106	-0.553953
H 	0.538309	-2.665511	0.553953
O 	-2.080000	0.000000	0.000000
H 	-2.715106	0.215234	-0.741832
H 	-2.665511	-0.215234	0.741832
O 	0.000000	0.000000	2.080000
H 	-0.748891	0.189213	2.715106
H 	0.748891	-0.189213	2.665511
O 	0.000000	-0.000000	-2.080000
H 	0.147091	0.758290	-2.715106
H 	-0.147091	-0.758290	-2.665511
