25
06/06/2024 01:27, XYZ structure generated by mol3D Class, molSimplify
Fe 	0.000000	0.000000	0.000000
B 	-0.000000	2.100000	-0.000000
O 	-1.294590	1.350000	0.107410
C 	-2.370204	2.272763	0.196651
F 	-2.210200	3.037402	1.273046
F 	-2.389779	3.037399	-0.891396
F 	-3.518074	1.607763	0.291888
O 	1.294590	1.350000	-0.107410
C 	2.370204	2.272763	-0.196651
N 	3.325353	3.092180	-0.275898
O 	2.080000	-0.000000	0.000000
H 	2.715106	0.659873	-0.401507
H 	2.665511	-0.659873	0.401507
O 	-0.000000	-2.080000	0.000000
H 	0.673483	-2.715106	-0.378233
H 	-0.673483	-2.665511	0.378233
O 	-2.080000	0.000000	0.000000
H 	-2.715106	-0.567839	0.523640
H 	-2.665511	0.567839	-0.523640
O 	0.000000	0.000000	2.080000
H 	0.543139	-0.549218	2.715106
H 	-0.543139	0.549218	2.665511
O 	0.000000	0.000000	-2.080000
H 	-0.561975	-0.529928	-2.715106
H 	0.561975	0.529928	-2.665511
