28
06/06/2024 00:27, XYZ structure generated by mol3D Class, molSimplify
Fe 	0.000000	0.000000	0.000000
B 	0.000000	2.100000	-0.000000
O 	-0.923978	2.776364	0.968915
C 	-1.744008	1.998867	1.828827
O 	-1.695080	0.729946	1.777519
C 	-2.680306	2.684250	2.810661
F 	-1.972409	3.443768	3.641873
F 	-3.544174	3.443766	2.143003
F 	-3.343595	1.764924	3.506209
C 	0.923978	2.976053	-0.968915
F 	1.653818	2.169521	-1.734251
F 	0.157204	3.743429	-1.738390
F 	1.728967	3.743429	-0.239513
O 	2.080000	0.000000	0.000000
H 	2.715106	-0.471379	-0.611916
H 	2.665511	0.471379	0.611916
O 	-0.000000	-2.080000	0.000000
H 	-0.449737	-2.715106	-0.627994
H 	0.449737	-2.665511	0.627994
O 	-2.080000	0.000000	0.000000
H 	-2.715106	-0.770893	-0.048612
H 	-2.665511	0.770893	0.048612
O 	0.000000	0.000000	2.080000
H 	-0.021679	-0.772120	2.715106
H 	0.021679	0.772120	2.665511
O 	0.000000	-0.000000	-2.080000
H 	-0.005281	-0.772407	-2.715106
H 	0.005281	0.772407	-2.665511
