24
06/06/2024 00:04, XYZ structure generated by mol3D Class, molSimplify
Fe 	0.000000	0.000000	0.000000
B 	0.000000	2.100000	0.000000
C 	-0.671425	2.937779	-1.186303
O 	-0.654221	4.208199	-1.155907
O 	-1.286536	2.261844	-2.273111
N 	0.671425	2.837816	1.186303
O 	1.246332	2.120468	2.202076
O 	0.688023	4.063503	1.215630
H 	-1.706176	2.785455	-3.014550
O 	2.080000	0.000000	0.000000
H 	2.715106	-0.596725	0.490469
H 	2.665511	0.596725	-0.490469
O 	-0.000000	-2.080000	0.000000
H 	-0.613478	-2.715106	0.469344
H 	0.613478	-2.665511	-0.469344
O 	-2.080000	0.000000	0.000000
H 	-2.715106	0.629485	0.447648
H 	-2.665511	-0.629485	-0.447648
O 	0.000000	0.000000	2.080000
H 	-0.246143	0.732157	2.715106
H 	0.246143	-0.732157	2.665511
O 	0.000000	-0.000000	-2.080000
H 	-0.752009	0.176416	-2.715106
H 	0.752009	-0.176416	-2.665511
