28
06/06/2024 01:45, XYZ structure generated by mol3D Class, molSimplify
Fe 	0.000000	0.000000	0.000000
B 	0.000000	2.100000	0.000000
O 	-0.115316	2.776364	-1.333879
S 	-0.221748	1.594374	-2.565005
O 	1.034413	0.720386	-2.543084
O 	-1.455512	0.720389	-2.327827
C 	-0.360895	2.410521	-4.174553
C 	0.115316	2.976053	1.333879
O 	0.213019	2.402992	2.464030
H 	-1.239129	3.021562	-4.189879
H 	0.501679	3.021560	-4.340373
H 	-0.427493	1.670913	-4.944906
H 	0.110174	4.044387	1.274410
O 	2.080000	0.000000	0.000000
H 	2.715106	0.483612	-0.602295
H 	2.665511	-0.483612	0.602295
O 	0.000000	-2.080000	0.000000
H 	0.504337	-2.715106	-0.585050
H 	-0.504337	-2.665511	0.585050
O 	-2.080000	0.000000	0.000000
H 	-2.715106	-0.524448	-0.567093
H 	-2.665511	0.524448	0.567093
O 	0.000000	0.000000	2.080000
H 	0.598268	-0.488585	2.715106
H 	-0.598268	0.488585	2.665511
O 	0.000000	-0.000000	-2.080000
H 	-0.485441	0.600822	-2.715106
H 	0.485441	-0.600822	-2.665511
