27
06/06/2024 00:25, XYZ structure generated by mol3D Class, molSimplify
Fe 	0.000000	0.000000	0.000000
B 	0.000000	2.100000	-0.000000
N 	0.586137	2.875000	1.207609
C 	0.586137	4.345000	1.207609
O 	1.066732	4.980450	2.197770
N 	0.030252	5.080000	0.062328
N 	-0.586137	2.875000	-1.207609
C 	-1.083654	2.217175	-2.232634
S 	-1.696243	1.407200	-3.494741
H 	0.971853	2.365000	2.002293
H 	-0.355464	4.570000	-0.732356
H 	0.030252	6.100000	0.062328
O 	2.080000	0.000000	0.000000
H 	2.715106	-0.723450	0.270665
H 	2.665511	0.723450	-0.270665
O 	-0.000000	-2.080000	0.000000
H 	-0.732456	-2.715106	0.245252
H 	0.732456	-2.665511	-0.245252
O 	-2.080000	0.000000	0.000000
H 	-2.715106	0.740569	0.219540
H 	-2.665511	-0.740569	-0.219540
O 	0.000000	0.000000	2.080000
H 	-0.153833	0.756951	2.715106
H 	0.153833	-0.756951	2.665511
O 	0.000000	0.000000	-2.080000
H 	0.281313	0.719377	-2.715106
H 	-0.281313	-0.719377	-2.665511
