28
06/06/2024 03:04, XYZ structure generated by mol3D Class, molSimplify
Fe 	0.000000	0.000000	0.000000
B 	0.000000	2.100000	0.000000
N 	-1.107910	2.837816	-0.794142
C 	1.107910	2.937779	0.794142
O 	2.016325	2.332817	1.445288
N 	1.075075	4.407223	0.770606
C 	0.024347	5.106959	0.017452
H 	-0.679715	3.422523	-1.511894
H 	-1.722989	2.153931	-1.235026
H 	1.781368	4.941307	1.276872
H 	-0.544423	5.720330	0.684668
H 	0.473532	5.720328	-0.735483
H 	-0.620882	4.389550	-0.445044
O 	2.080000	0.000000	0.000000
H 	2.715106	0.254493	0.729297
H 	2.665511	-0.254493	-0.729297
O 	0.000000	-2.080000	0.000000
H 	0.228885	-2.715106	0.737734
H 	-0.228885	-2.665511	-0.737734
O 	-2.080000	0.000000	0.000000
H 	-2.715106	-0.202999	0.745272
H 	-2.665511	0.202999	-0.745272
O 	0.000000	0.000000	2.080000
H 	0.751903	-0.176866	2.715106
H 	-0.751903	0.176866	2.665511
O 	0.000000	0.000000	-2.080000
H 	-0.150517	0.757618	-2.715106
H 	0.150517	-0.757618	-2.665511
