26
06/06/2024 01:36, XYZ structure generated by mol3D Class, molSimplify
Fe 	0.000000	0.000000	0.000000
B 	0.000000	2.100000	0.000000
O 	-0.034735	2.581681	1.420133
S 	0.034735	3.346642	-1.420133
O 	0.067383	2.598614	-2.754923
O 	-1.216759	4.225399	-1.358281
C 	1.509479	4.385911	-1.274700
F 	1.481108	5.035966	-0.114733
F 	2.597060	3.622248	-1.328451
F 	1.533923	5.263177	-2.274053
H 	-0.049857	1.795842	2.038380
O 	2.080000	0.000000	0.000000
H 	2.715106	-0.389443	0.667063
H 	2.665511	0.389443	-0.667063
O 	-0.000000	-2.080000	0.000000
H 	-0.412486	-2.715106	0.653066
H 	0.412486	-2.665511	-0.653066
O 	-2.080000	0.000000	0.000000
H 	-2.715106	0.435027	0.638272
H 	-2.665511	-0.435027	-0.638272
O 	0.000000	0.000000	2.080000
H 	-0.727111	0.260671	2.715106
H 	0.727111	-0.260671	2.665511
O 	0.000000	0.000000	-2.080000
H 	0.498175	-0.590306	-2.715106
H 	-0.498175	0.590306	-2.665511
