26
06/06/2024 01:50, XYZ structure generated by mol3D Class, molSimplify
Fe 	0.000000	0.000000	0.000000
B 	0.000000	2.100000	0.000000
O 	-0.297219	2.776364	-1.305447
C 	-0.525020	1.794829	-2.305994
C 	0.297219	2.976053	1.305447
O 	0.549043	2.402992	2.411509
O 	0.279634	4.393842	1.228208
H 	0.347012	1.183788	-2.411297
H 	-1.356690	1.183790	-2.023405
H 	-0.737036	2.277302	-3.237213
H 	0.465396	4.941375	2.044112
O 	2.080000	0.000000	0.000000
H 	2.715106	0.495126	0.592866
H 	2.665511	-0.495126	-0.592866
O 	-0.000000	-2.080000	0.000000
H 	0.474134	-2.715106	0.609785
H 	-0.474134	-2.665511	-0.609785
O 	-2.080000	0.000000	0.000000
H 	-2.715106	-0.185121	0.749913
H 	-2.665511	0.185121	-0.749913
O 	0.000000	0.000000	2.080000
H 	0.755917	-0.158836	2.715106
H 	-0.755917	0.158836	2.665511
O 	0.000000	-0.000000	-2.080000
H 	-0.772423	0.001799	-2.715106
H 	0.772423	-0.001799	-2.665511
