38
06/05/2024 23:04, XYZ structure generated by mol3D Class, molSimplify
Fe 	0.000000	0.000000	0.000000
B 	0.000000	2.100000	0.000000
C 	1.071147	2.976053	-0.803228
C 	0.351900	3.853058	-1.815130
C 	1.841032	3.853055	0.170705
C 	2.038100	2.054295	-1.528324
O 	-1.071147	2.776364	0.803228
S 	-2.059780	1.594374	1.544581
O 	-2.705432	0.720386	0.466827
O 	-1.206062	0.720389	2.466315
C 	-3.352297	2.410521	2.513810
H 	-0.328784	4.501927	-1.304701
H 	1.068230	4.438917	-2.352290
H 	-0.190058	3.235694	-2.500727
H 	2.347346	3.235694	0.883033
H 	2.557363	4.438913	-0.366454
H 	1.160343	4.501922	0.681132
H 	2.544412	1.436930	-0.815998
H 	1.496142	1.436932	-2.213922
H 	2.754429	2.640156	-2.065483
H 	-2.900895	3.021562	3.267312
H 	-3.949166	3.021560	1.869389
H 	-3.970915	1.670913	2.977698
O 	2.080000	-0.000000	0.000000
H 	2.715106	-0.471266	-0.612004
H 	2.665511	0.471266	0.612004
O 	-0.000000	-2.080000	0.000000
H 	-0.449620	-2.715106	-0.628078
H 	0.449620	-2.665511	0.628078
O 	-2.080000	0.000000	0.000000
H 	-2.715106	0.427427	-0.643387
H 	-2.665511	-0.427427	0.643387
O 	0.000000	0.000000	2.080000
H 	-0.532656	-0.559390	2.715106
H 	0.532656	0.559390	2.665511
O 	0.000000	0.000000	-2.080000
H 	0.659359	-0.402350	-2.715106
H 	-0.659359	0.402350	-2.665511
