31
06/05/2024 23:17, XYZ structure generated by mol3D Class, molSimplify
Fe 	0.000000	0.000000	0.000000
B 	0.000000	2.100000	0.000000
N 	-0.867037	2.912787	-0.995050
C 	-0.839627	4.382195	-0.963594
O 	-1.550541	5.048628	-1.779470
N 	0.010069	5.080766	0.011555
O 	0.867037	2.812827	0.995050
C 	1.661354	2.068210	1.906644
O 	1.637657	0.797822	1.879448
C 	2.539951	2.790541	2.914962
F 	3.419207	3.552873	2.271021
F 	1.781742	3.552870	3.697824
F 	3.187675	1.897920	3.658319
H 	-1.456621	2.428064	-1.671684
H 	0.580635	4.545899	0.666363
H 	0.029088	6.100355	0.033382
O 	2.080000	0.000000	0.000000
H 	2.715106	-0.467724	0.614715
H 	2.665511	0.467724	-0.614715
O 	-0.000000	-2.080000	0.000000
H 	-0.488892	-2.715106	0.598017
H 	0.488892	-2.665511	-0.598017
O 	-2.080000	0.000000	0.000000
H 	-2.715106	0.509465	0.580591
H 	-2.665511	-0.509465	-0.580591
O 	0.000000	0.000000	2.080000
H 	-0.017076	0.772236	2.715106
H 	0.017076	-0.772236	2.665511
O 	0.000000	-0.000000	-2.080000
H 	-0.736716	0.232140	-2.715106
H 	0.736716	-0.232140	-2.665511
