23
06/05/2024 23:30, XYZ structure generated by mol3D Class, molSimplify
Fe 	0.000000	0.000000	0.000000
B 	0.000000	2.100000	0.000000
N 	-1.129508	2.837816	0.763111
C 	-2.058281	2.148927	1.390603
O 	-2.955464	1.483469	1.996752
C 	1.129508	2.937779	-0.763111
O 	2.055632	2.332817	-1.388813
Cl 	1.088973	4.717106	-0.735725
O 	2.080000	0.000000	0.000000
H 	2.715106	0.682505	0.361700
H 	2.665511	-0.682505	-0.361700
O 	-0.000000	-2.080000	0.000000
H 	0.669466	-2.715106	0.385299
H 	-0.669466	-2.665511	-0.385299
O 	-2.080000	0.000000	0.000000
H 	-2.715106	-0.655611	0.408429
H 	-2.665511	0.655611	-0.408429
O 	0.000000	0.000000	2.080000
H 	0.431060	-0.640958	2.715106
H 	-0.431060	0.640958	2.665511
O 	0.000000	-0.000000	-2.080000
H 	-0.769251	0.069951	-2.715106
H 	0.769251	-0.069951	-2.665511
