31
06/05/2024 22:44, XYZ structure generated by mol3D Class, molSimplify
Fe 	0.000000	0.000000	0.000000
B 	0.000000	2.100000	-0.000000
C 	0.384560	2.694448	1.434833
C 	1.381805	2.139609	2.219830
C 	1.318574	2.520656	3.581026
C 	0.643473	3.559939	4.037257
C 	-0.279284	4.105767	3.188705
C 	-0.366554	3.694648	1.880554
S 	-0.384560	3.268533	-1.434833
C 	-0.780457	2.300314	-2.911964
N 	-1.056265	1.625788	-3.941032
H 	2.131934	1.482463	1.832057
H 	1.855053	1.925352	4.290041
H 	0.809674	3.953667	5.018203
H 	-0.943001	4.863987	3.548540
H 	-1.045926	4.184899	1.214965
O 	2.080000	0.000000	0.000000
H 	2.715106	0.744067	-0.207375
H 	2.665511	-0.744067	0.207375
O 	-0.000000	-2.080000	0.000000
H 	0.750851	-2.715106	-0.181282
H 	-0.750851	-2.665511	0.181282
O 	-2.080000	0.000000	0.000000
H 	-2.715106	-0.756720	-0.154967
H 	-2.665511	0.756720	0.154967
O 	0.000000	0.000000	2.080000
H 	0.139790	-0.759670	2.715106
H 	-0.139790	0.759670	2.665511
O 	0.000000	-0.000000	-2.080000
H 	-0.458660	-0.621507	-2.715106
H 	0.458660	0.621507	-2.665511
