27
06/05/2024 23:01, XYZ structure generated by mol3D Class, molSimplify
Fe 	0.000000	0.000000	0.000000
B 	0.000000	2.100000	0.000000
C 	-1.400212	2.694448	-0.496023
F 	-1.931233	3.441252	0.467927
F 	-1.206009	3.441249	-1.579292
F 	-2.227319	1.694976	-0.789024
S 	1.400212	3.268533	0.496023
O 	2.619072	2.449860	0.927802
O 	1.774967	4.150986	-0.696920
N 	0.871471	4.283344	1.833255
H 	0.621707	3.695214	2.628316
H 	1.627141	4.913980	2.100950
O 	2.080000	-0.000000	0.000000
H 	2.715106	0.420828	-0.647722
H 	2.665511	-0.420828	0.647722
O 	0.000000	-2.080000	0.000000
H 	0.443177	-2.715106	-0.632640
H 	-0.443177	-2.665511	0.632640
O 	-2.080000	0.000000	0.000000
H 	-2.715106	-0.464986	-0.616788
H 	-2.665511	0.464986	0.616788
O 	0.000000	0.000000	2.080000
H 	-0.600185	-0.486228	2.715106
H 	0.600185	0.486228	2.665511
O 	0.000000	-0.000000	-2.080000
H 	0.367792	-0.679241	-2.715106
H 	-0.367792	0.679241	-2.665511
