30
06/06/2024 02:34, XYZ structure generated by mol3D Class, molSimplify
Fe 	0.000000	0.000000	0.000000
B 	0.000000	2.100000	0.000000
O 	0.072809	1.281586	1.254949
C 	0.146135	1.924787	2.518798
C 	1.055673	1.471636	3.460052
C 	0.839265	1.985868	4.760354
C 	0.108627	3.051840	5.032176
C 	-0.719790	3.491157	4.037100
C 	-0.658538	2.949297	2.775937
F 	-0.072809	1.461328	-1.254949
H 	1.849884	0.794172	3.225166
H 	1.299612	1.475566	5.580459
H 	0.162067	3.545189	5.980148
H 	-1.425950	4.268106	4.243469
H 	-1.264744	3.356572	1.993925
O 	2.080000	0.000000	0.000000
H 	2.715106	0.594683	-0.492942
H 	2.665511	-0.594683	0.492942
O 	-0.000000	-2.080000	0.000000
H 	0.611524	-2.715106	-0.471888
H 	-0.611524	-2.665511	0.471888
O 	-2.080000	0.000000	0.000000
H 	-2.715106	-0.627620	-0.450258
H 	-2.665511	0.627620	0.450258
O 	0.000000	0.000000	2.080000
H 	0.539899	-0.552403	2.715106
H 	-0.539899	0.552403	2.665511
O 	0.000000	0.000000	-2.080000
H 	0.415333	0.651259	-2.715106
H 	-0.415333	-0.651259	-2.665511
