24
06/05/2024 23:52, XYZ structure generated by mol3D Class, molSimplify
Fe 	0.000000	0.000000	0.000000
B 	0.000000	2.100000	0.000000
F 	-1.258486	2.668110	0.285594
C 	1.258486	3.045859	-0.285594
O 	2.392820	2.533794	-0.543013
C 	1.097382	4.556855	-0.249034
H 	0.377251	4.856590	-0.981475
H 	0.763943	4.856589	0.722500
H 	2.037545	5.021046	-0.462389
O 	2.080000	-0.000000	0.000000
H 	2.715106	0.633645	0.441739
H 	2.665511	-0.633645	-0.441739
O 	-0.000000	-2.080000	0.000000
H 	0.617843	-2.715106	0.463584
H 	-0.617843	-2.665511	-0.463584
O 	-2.080000	0.000000	0.000000
H 	-2.715106	-0.601288	0.484864
H 	-2.665511	0.601288	-0.484864
O 	0.000000	0.000000	2.080000
H 	0.505553	-0.584000	2.715106
H 	-0.505553	0.584000	2.665511
O 	0.000000	-0.000000	-2.080000
H 	-0.766242	-0.097538	-2.715106
H 	0.766242	0.097538	-2.665511
