26
06/06/2024 00:52, XYZ structure generated by mol3D Class, molSimplify
Fe 	0.000000	0.000000	0.000000
B 	0.000000	2.100000	0.000000
S 	0.285118	3.346642	-1.391651
O 	-0.285118	2.581681	1.391651
C 	-0.499334	1.645050	2.437229
O 	-0.449486	0.398654	2.193923
C 	-0.788253	2.133154	3.847435
H 	0.523255	2.681916	-2.553989
H 	0.032333	2.725377	4.195011
H 	-1.679412	2.725375	3.844312
H 	-0.921067	1.292306	4.495692
O 	2.080000	0.000000	0.000000
H 	2.715106	0.393149	-0.664886
H 	2.665511	-0.393149	0.664886
O 	0.000000	-2.080000	0.000000
H 	0.416114	-2.715106	-0.650760
H 	-0.416114	-2.665511	0.650760
O 	-2.080000	0.000000	0.000000
H 	-2.715106	-0.438572	-0.635842
H 	-2.665511	0.438572	0.635842
O 	0.000000	0.000000	2.080000
H 	-0.620148	-0.460495	2.715106
H 	0.620148	0.460495	2.665511
O 	0.000000	-0.000000	-2.080000
H 	0.603700	-0.481858	-2.715106
H 	-0.603700	0.481858	-2.665511
