33
06/06/2024 03:24, XYZ structure generated by mol3D Class, molSimplify
Fe 	0.000000	0.000000	0.000000
B 	0.000000	2.100000	0.000000
S 	-1.230514	0.931467	0.832146
C 	-2.497304	1.899686	1.688823
C 	-2.578542	1.841470	3.070336
C 	-3.768787	2.395067	3.598446
C 	-4.571591	3.211261	2.940154
C 	-4.396014	3.275494	1.585718
C 	-3.331038	2.652664	0.980902
C 	1.230514	1.505552	-0.832146
Cl 	2.203319	2.843185	-1.490014
Cl 	2.242747	0.506074	0.237821
Cl 	0.614421	0.506072	-2.170006
H 	-1.810864	1.416422	3.682630
H 	-4.037070	2.134264	4.600896
H 	-5.319236	3.791109	3.439857
H 	-5.098058	3.818602	0.988166
H 	-3.172076	2.775502	-0.070070
O 	2.080000	-0.000000	0.000000
H 	2.715106	0.762961	-0.120539
H 	2.665511	-0.762961	0.120539
O 	-0.000000	-2.080000	0.000000
H 	0.766703	-2.715106	-0.093839
H 	-0.766703	-2.665511	0.093839
O 	-2.080000	0.000000	0.000000
H 	-2.715106	-0.769511	-0.067024
H 	-2.665511	0.769511	0.067024
O 	0.000000	0.000000	2.080000
H 	-0.040128	-0.771382	2.715106
H 	0.040128	0.771382	2.665511
O 	0.000000	-0.000000	-2.080000
H 	-0.765214	0.105295	-2.715106
H 	0.765214	-0.105295	-2.665511
