31
06/05/2024 22:59, XYZ structure generated by mol3D Class, molSimplify
Fe 	0.000000	0.000000	0.000000
B 	0.000000	2.100000	0.000000
O 	1.247014	2.776364	0.487327
C 	2.353739	1.998867	0.919830
O 	2.287704	0.729946	0.894024
C 	3.617379	2.684250	1.413654
F 	4.117898	3.443768	0.443338
F 	3.327360	3.443766	2.466234
F 	4.512565	1.764924	1.763488
C 	-1.247014	2.976053	-0.487327
O 	-2.303567	2.402992	-0.900223
O 	-1.173232	4.393842	-0.458493
C 	-2.279957	5.171339	-0.890996
H 	-2.497174	4.944550	-1.913876
H 	-3.133169	4.944550	-0.286433
H 	-2.043468	6.210777	-0.798577
O 	2.080000	-0.000000	0.000000
H 	2.715106	0.689932	-0.347323
H 	2.665511	-0.689932	0.347323
O 	0.000000	-2.080000	0.000000
H 	0.701633	-2.715106	-0.323033
H 	-0.701633	-2.665511	0.323033
O 	-2.080000	0.000000	0.000000
H 	-2.715106	-0.712480	-0.298350
H 	-2.665511	0.712480	0.298350
O 	0.000000	0.000000	2.080000
H 	-0.273303	-0.722458	2.715106
H 	0.273303	0.722458	2.665511
O 	0.000000	-0.000000	-2.080000
H 	0.578744	-0.511562	-2.715106
H 	-0.578744	0.511562	-2.665511
