23
06/06/2024 00:21, XYZ structure generated by mol3D Class, molSimplify
Fe 	0.000000	0.000000	0.000000
B 	0.000000	2.100000	0.000000
C 	-0.245438	2.900000	1.363730
Cl 	1.168240	3.923352	1.713967
Cl 	-1.692523	3.923348	1.199099
Cl 	-0.485083	1.743298	2.695274
C 	0.245438	2.900000	-1.363730
N 	0.438869	3.530483	-2.438491
O 	2.080000	-0.000000	0.000000
H 	2.715106	-0.754125	-0.167140
H 	2.665511	0.754125	0.167140
O 	-0.000000	-2.080000	0.000000
H 	-0.747832	-2.715106	-0.193357
H 	0.747832	-2.665511	0.193357
O 	-2.080000	0.000000	0.000000
H 	-2.715106	0.740629	-0.219338
H 	-2.665511	-0.740629	0.219338
O 	0.000000	0.000000	2.080000
H 	-0.754125	-0.167140	2.715106
H 	0.754125	0.167140	2.665511
O 	0.000000	0.000000	-2.080000
H 	-0.432004	0.640322	-2.715106
H 	0.432004	-0.640322	-2.665511
