26
06/06/2024 00:00, XYZ structure generated by mol3D Class, molSimplify
Fe 	0.000000	0.000000	0.000000
B 	0.000000	2.100000	0.000000
F 	-1.038460	2.668110	0.766128
C 	1.038460	3.045859	-0.766128
O 	1.974474	2.533794	-1.456675
N 	0.909896	4.507151	-0.671279
C 	-0.172755	5.099435	0.127450
H 	1.571914	5.110136	-1.159685
H 	0.246765	5.704792	0.903625
H 	-0.790562	5.704790	-0.502438
H 	-0.762519	4.319842	0.562551
O 	2.080000	0.000000	-0.000000
H 	2.715106	-0.357616	-0.684654
H 	2.665511	0.357616	0.684654
O 	0.000000	-2.080000	0.000000
H 	-0.333504	-2.715106	-0.696717
H 	0.333504	-2.665511	0.696717
O 	-2.080000	0.000000	0.000000
H 	-2.715106	0.308986	-0.707932
H 	-2.665511	-0.308986	0.707932
O 	0.000000	0.000000	2.080000
H 	-0.718284	0.284091	2.715106
H 	0.718284	-0.284091	2.665511
O 	0.000000	-0.000000	-2.080000
H 	0.727761	0.258850	-2.715106
H 	-0.727761	-0.258850	-2.665511
