26
06/06/2024 00:14, XYZ structure generated by mol3D Class, molSimplify
Fe 	0.000000	0.000000	0.000000
B 	0.000000	2.100000	0.000000
N 	-1.096834	2.982012	0.649239
C 	-0.993549	4.447104	0.588103
O 	-1.892882	5.170296	1.120437
C 	0.188853	5.097088	-0.111786
F 	1.096834	2.702946	-0.649239
H 	-1.890288	2.545838	1.118902
H 	1.096934	4.793648	0.365930
H 	0.206901	4.793649	-1.137700
H 	0.095071	6.161524	-0.056275
O 	2.080000	-0.000000	0.000000
H 	2.715106	-0.499601	-0.589099
H 	2.665511	0.499601	0.589099
O 	-0.000000	-2.080000	0.000000
H 	-0.478738	-2.715106	-0.606176
H 	0.478738	-2.665511	0.606176
O 	-2.080000	0.000000	0.000000
H 	-2.715106	0.457291	-0.622515
H 	-2.665511	-0.457291	0.622515
O 	0.000000	0.000000	2.080000
H 	-0.638095	0.435287	2.715106
H 	0.638095	-0.435287	2.665511
O 	0.000000	-0.000000	-2.080000
H 	0.652897	0.412753	-2.715106
H 	-0.652897	-0.412753	-2.665511
