27
06/06/2024 02:36, XYZ structure generated by mol3D Class, molSimplify
Fe 	0.000000	0.000000	0.000000
B 	0.000000	2.100000	0.000000
C 	-1.444317	2.694448	0.347245
Cl 	-1.337069	3.693930	1.816236
Cl 	-2.016546	3.693927	-1.009956
Cl 	-2.586140	1.356808	0.621765
S 	1.444317	3.268533	-0.347245
O 	2.701570	2.449860	-0.649517
O 	1.108361	4.150986	-1.551690
N 	1.729806	4.283344	1.062100
H 	1.953712	3.695214	1.864827
H 	2.509279	4.913980	0.874698
O 	2.080000	0.000000	0.000000
H 	2.715106	-0.656378	-0.407196
H 	2.665511	0.656378	0.407196
O 	-0.000000	-2.080000	0.000000
H 	-0.641767	-2.715106	-0.429855
H 	0.641767	-2.665511	0.429855
O 	-2.080000	0.000000	0.000000
H 	-2.715106	0.411446	-0.653722
H 	-2.665511	-0.411446	0.653722
O 	0.000000	0.000000	2.080000
H 	-0.667683	0.388380	2.715106
H 	0.667683	-0.388380	2.665511
O 	0.000000	0.000000	-2.080000
H 	0.288735	0.716430	-2.715106
H 	-0.288735	-0.716430	-2.665511
