25
06/05/2024 22:54, XYZ structure generated by mol3D Class, molSimplify
Fe 	0.000000	0.000000	0.000000
B 	-0.000000	2.100000	0.000000
C 	0.942365	2.976053	0.951042
C 	0.888948	4.334335	0.897133
O 	-0.942365	2.776364	-0.951042
C 	-1.664631	1.794829	-1.679958
N 	-2.306006	0.923221	-2.327239
H 	1.614585	2.493580	1.629451
H 	1.519155	4.920195	1.533142
H 	0.216728	4.816808	0.218724
O 	2.080000	0.000000	0.000000
H 	2.715106	0.021534	0.772124
H 	2.665511	-0.021534	-0.772124
O 	0.000000	-2.080000	0.000000
H 	-0.005426	-2.715106	0.772406
H 	0.005426	-2.665511	-0.772406
O 	-2.080000	0.000000	0.000000
H 	-2.715106	0.343477	0.691855
H 	-2.665511	-0.343477	-0.691855
O 	0.000000	0.000000	2.080000
H 	0.679446	0.367413	2.715106
H 	-0.679446	-0.367413	2.665511
O 	0.000000	-0.000000	-2.080000
H 	-0.181597	0.750775	-2.715106
H 	0.181597	-0.750775	-2.665511
