25
06/05/2024 22:45, XYZ structure generated by mol3D Class, molSimplify
Fe 	0.000000	0.000000	0.000000
B 	-0.000000	2.100000	0.000000
N 	0.875116	2.837816	-1.045131
O 	1.793233	3.623158	-0.399220
C 	-0.875116	2.937779	1.045131
Cl 	-1.763773	1.818704	2.106432
Cl 	0.196739	3.963331	2.028882
Cl 	-2.031881	3.963332	0.162784
H 	1.360955	2.153931	-1.625356
H 	1.316917	4.293632	0.169627
O 	2.080000	0.000000	0.000000
H 	2.715106	-0.141436	0.759365
H 	2.665511	0.141436	-0.759365
O 	-0.000000	-2.080000	0.000000
H 	-0.167851	-2.715106	0.753967
H 	0.167851	-2.665511	-0.753967
O 	-2.080000	0.000000	0.000000
H 	-2.715106	0.194062	0.747649
H 	-2.665511	-0.194062	-0.747649
O 	0.000000	0.000000	2.080000
H 	0.740421	0.220037	2.715106
H 	-0.740421	-0.220037	2.665511
O 	0.000000	-0.000000	-2.080000
H 	-0.751992	-0.176487	-2.715106
H 	0.751992	0.176487	-2.665511
