35
06/06/2024 02:53, XYZ structure generated by mol3D Class, molSimplify
Fe 	0.000000	0.000000	0.000000
B 	0.000000	2.100000	-0.000000
N 	-1.290333	1.287213	0.277340
C 	-1.090767	0.440218	1.462107
O 	1.290333	1.387173	-0.277340
C 	2.472445	2.131790	-0.531419
C 	3.275459	1.873338	-1.630025
C 	4.493652	2.593096	-1.631713
C 	4.730592	3.666126	-0.899263
C 	3.861702	3.904401	0.129185
C 	2.716440	3.159159	0.273703
H 	-2.066389	1.927771	0.444143
H 	-0.868855	1.056736	2.308015
H 	-1.981514	-0.120865	1.653563
H 	-0.276668	-0.231737	1.287123
H 	2.999592	1.191271	-2.406931
H 	5.277401	2.243688	-2.270894
H 	5.558033	4.314201	-1.099860
H 	4.076688	4.682417	0.831589
H 	2.014824	3.408926	1.041980
O 	2.080000	0.000000	0.000000
H 	2.715106	-0.337532	-0.694775
H 	2.665511	0.337532	0.694775
O 	0.000000	-2.080000	0.000000
H 	-0.313079	-2.715106	-0.706131
H 	0.313079	-2.665511	0.706131
O 	-2.080000	0.000000	0.000000
H 	-2.715106	-0.715730	0.290466
H 	-2.665511	0.715730	-0.290466
O 	0.000000	0.000000	2.080000
H 	0.726251	-0.263059	2.715106
H 	-0.726251	0.263059	2.665511
O 	0.000000	0.000000	-2.080000
H 	0.687754	-0.351618	-2.715106
H 	-0.687754	0.351618	-2.665511
