34
06/06/2024 01:30, XYZ structure generated by mol3D Class, molSimplify
Fe 	0.000000	0.000000	0.000000
B 	0.000000	2.100000	0.000000
S 	-1.244099	3.268533	-0.811695
C 	-2.524874	2.300314	-1.647319
C 	-2.191508	1.554960	-2.766193
C 	-3.309050	1.084490	-3.495446
C 	-4.539157	1.016677	-3.019785
C 	-4.787741	1.720118	-1.873998
C 	-3.766183	2.317771	-1.176057
C 	1.244099	2.694448	0.811695
O 	2.080673	1.908687	1.357507
N 	1.419483	4.149456	0.926122
H 	-1.180595	1.353254	-3.053022
H 	-3.146155	0.761173	-4.502338
H 	-5.300349	0.442139	-3.504959
H 	-5.792265	1.806437	-1.515695
H 	-3.972771	2.801646	-0.244345
H 	0.748064	4.780092	0.488064
H 	2.212596	4.528416	1.443577
O 	2.080000	-0.000000	0.000000
H 	2.715106	0.018065	-0.772213
H 	2.665511	-0.018065	0.772213
O 	0.000000	-2.080000	0.000000
H 	0.045004	-2.715106	-0.771113
H 	-0.045004	-2.665511	0.771113
O 	-2.080000	0.000000	0.000000
H 	-2.715106	-0.071888	-0.769072
H 	-2.665511	0.071888	0.769072
O 	0.000000	0.000000	2.080000
H 	-0.766095	-0.098684	2.715106
H 	0.766095	0.098684	2.665511
O 	0.000000	-0.000000	-2.080000
H 	0.582779	0.506960	-2.715106
H 	-0.582779	-0.506960	-2.665511
