26
06/06/2024 01:56, XYZ structure generated by mol3D Class, molSimplify
Fe 	0.000000	0.000000	0.000000
B 	0.000000	2.100000	-0.000000
N 	-1.418902	2.637386	-0.316913
C 	-1.660980	4.086308	-0.370981
O 	-2.824388	4.526930	-0.630829
N 	-0.557389	5.025580	-0.124493
S 	1.418902	3.307636	0.316913
H 	-2.184658	1.985646	-0.487945
H 	0.376340	4.671945	0.084056
H 	-0.725362	6.030954	-0.162010
H 	2.558823	2.610959	0.571515
O 	2.080000	0.000000	0.000000
H 	2.715106	0.607652	-0.476864
H 	2.665511	-0.607652	0.476864
O 	-0.000000	-2.080000	0.000000
H 	0.623924	-2.715106	-0.455366
H 	-0.623924	-2.665511	0.455366
O 	-2.080000	0.000000	0.000000
H 	-2.715106	-0.001666	0.772423
H 	-2.665511	0.001666	-0.772423
O 	0.000000	0.000000	2.080000
H 	0.772010	0.025293	2.715106
H 	-0.772010	-0.025293	2.665511
O 	0.000000	0.000000	-2.080000
H 	-0.772390	-0.007268	-2.715106
H 	0.772390	0.007268	-2.665511
