21
06/06/2024 01:36, XYZ structure generated by mol3D Class, molSimplify
Fe 	0.000000	0.000000	0.000000
B 	0.000000	2.100000	0.000000
N 	-1.423031	2.656776	0.259774
C 	-2.429596	1.829734	0.443523
O 	-3.401924	1.030823	0.621021
Cl 	1.423031	3.269231	-0.259774
O 	2.080000	-0.000000	0.000000
H 	2.715106	-0.744376	-0.206261
H 	2.665511	0.744376	0.206261
O 	-0.000000	-2.080000	0.000000
H 	-0.736725	-2.715106	-0.232114
H 	0.736725	-2.665511	0.232114
O 	-2.080000	0.000000	0.000000
H 	-2.715106	-0.415164	0.651367
H 	-2.665511	0.415164	-0.651367
O 	0.000000	0.000000	2.080000
H 	0.665459	-0.392179	2.715106
H 	-0.665459	0.392179	2.665511
O 	0.000000	-0.000000	-2.080000
H 	-0.678740	-0.368716	-2.715106
H 	0.678740	0.368716	-2.665511
