37
06/05/2024 22:42, XYZ structure generated by mol3D Class, molSimplify
Fe 	0.000000	0.000000	0.000000
B 	0.000000	2.100000	-0.000000
C 	-1.293284	2.900000	0.497410
C 	-0.922924	3.773874	1.684666
C 	-1.813952	3.773871	-0.632039
C 	-2.371596	1.912254	0.912139
C 	1.293284	2.900000	-0.497410
O 	2.320556	2.264550	-0.892508
O 	1.293284	4.320000	-0.497410
C 	2.441074	5.030000	-0.938861
H 	-0.163850	4.469195	1.392718
H 	-1.787809	4.308872	2.017309
H 	-0.556402	3.158714	2.479738
H 	-2.074667	3.158714	-1.467808
H 	-2.678837	4.308868	-0.299398
H 	-1.054874	4.469190	-0.923984
H 	-2.632310	1.297093	0.076373
H 	-2.005074	1.297095	1.707212
H 	-3.236480	2.447254	1.244782
H 	3.278380	4.771508	-0.324858
H 	2.651142	4.771509	-1.955696
H 	2.258581	6.081984	-0.868672
O 	2.080000	-0.000000	0.000000
H 	2.715106	0.668165	0.387551
H 	2.665511	-0.668165	-0.387551
O 	-0.000000	-2.080000	0.000000
H 	0.654233	-2.715106	0.410633
H 	-0.654233	-2.665511	-0.410633
O 	-2.080000	0.000000	0.000000
H 	-2.715106	-0.132607	0.760957
H 	-2.665511	0.132607	-0.760957
O 	0.000000	0.000000	2.080000
H 	0.768030	0.082278	2.715106
H 	-0.768030	-0.082278	2.665511
O 	0.000000	0.000000	-2.080000
H 	-0.715722	-0.290484	-2.715106
H 	0.715722	0.290484	-2.665511
