29
06/06/2024 00:21, XYZ structure generated by mol3D Class, molSimplify
Fe 	0.000000	0.000000	0.000000
B 	0.000000	2.100000	0.000000
C 	0.749351	2.976053	1.109506
C 	0.706875	4.334335	1.046616
O 	-0.749351	2.776364	-1.109506
C 	-1.414400	1.998867	-2.094193
O 	-1.374719	0.729946	-2.035440
C 	-2.173742	2.684250	-3.218493
H 	1.283888	2.493580	1.900954
H 	1.208004	4.920195	1.788598
H 	0.172338	4.816808	0.255168
H 	-2.948617	3.295291	-2.804853
H 	-1.500631	3.295289	-3.782809
H 	-2.606514	1.944642	-3.859265
O 	2.080000	0.000000	-0.000000
H 	2.715106	0.457227	-0.622562
H 	2.665511	-0.457227	0.622562
O 	-0.000000	-2.080000	0.000000
H 	0.478676	-2.715106	-0.606226
H 	-0.478676	-2.665511	0.606226
O 	-2.080000	0.000000	0.000000
H 	-2.715106	-0.499541	-0.589151
H 	-2.665511	0.499541	0.589151
O 	0.000000	0.000000	2.080000
H 	-0.571358	-0.519798	2.715106
H 	0.571358	0.519798	2.665511
O 	0.000000	-0.000000	-2.080000
H 	-0.057843	-0.770256	-2.715106
H 	0.057843	0.770256	-2.665511
