32
06/06/2024 02:47, XYZ structure generated by mol3D Class, molSimplify
Fe 	0.000000	0.000000	0.000000
B 	0.000000	2.100000	-0.000000
S 	-1.369435	0.892364	-0.488224
C 	-2.833646	1.819559	-1.010237
C 	-3.343028	2.806829	-0.182956
C 	-4.634746	3.252462	-0.550281
C 	-5.185763	3.057208	-1.734457
C 	-4.595192	2.117032	-2.532421
C 	-3.398979	1.540803	-2.178968
N 	1.369435	1.562614	0.488224
C 	2.322715	2.403263	0.828082
S 	3.496480	3.438347	1.246547
H 	-2.808224	3.197089	0.657629
H 	-5.204754	3.784670	0.182347
H 	-6.048003	3.605286	-2.052345
H 	-5.071422	1.825818	-3.445273
H 	-2.918625	0.861284	-2.851585
O 	2.080000	0.000000	0.000000
H 	2.715106	-0.348609	-0.689283
H 	2.665511	0.348609	0.689283
O 	0.000000	-2.080000	0.000000
H 	-0.324341	-2.715106	-0.701030
H 	0.324341	-2.665511	0.701030
O 	-2.080000	0.000000	0.000000
H 	-2.715106	0.299678	-0.711922
H 	-2.665511	-0.299678	0.711922
O 	0.000000	0.000000	2.080000
H 	-0.721947	0.274650	2.715106
H 	0.721947	-0.274650	2.665511
O 	0.000000	-0.000000	-2.080000
H 	0.731092	0.249287	-2.715106
H 	-0.731092	-0.249287	-2.665511
