25
06/06/2024 02:59, XYZ structure generated by mol3D Class, molSimplify
Fe 	0.000000	0.000000	0.000000
B 	0.000000	2.100000	0.000000
F 	-1.100141	2.738672	0.608183
O 	1.100141	2.918414	-0.608183
C 	2.208085	2.275213	-1.220680
O 	2.267582	1.006132	-1.253571
C 	3.322895	3.104539	-1.836973
H 	2.920948	3.721852	-2.613029
H 	3.766318	3.721849	-1.083843
H 	4.066188	2.453717	-2.247882
O 	2.080000	0.000000	0.000000
H 	2.715106	-0.713082	-0.296908
H 	2.665511	0.713082	0.296908
O 	0.000000	-2.080000	0.000000
H 	-0.702285	-2.715106	-0.321613
H 	0.702285	-2.665511	0.321613
O 	-2.080000	0.000000	0.000000
H 	-2.715106	0.690634	-0.345927
H 	-2.665511	-0.690634	0.345927
O 	0.000000	0.000000	2.080000
H 	-0.369819	0.678140	2.715106
H 	0.369819	-0.678140	2.665511
O 	0.000000	-0.000000	-2.080000
H 	0.393260	0.664821	-2.715106
H 	-0.393260	-0.664821	-2.665511
