22
06/06/2024 00:35, XYZ structure generated by mol3D Class, molSimplify
Fe 	0.000000	0.000000	0.000000
B 	0.000000	2.100000	0.000000
C 	-0.205535	2.714470	-1.462936
Cl 	0.205535	3.230121	1.462936
H 	-1.089555	3.317171	-1.475672
H 	0.640753	3.317168	-1.718771
H 	-0.305254	1.919998	-2.172703
O 	2.080000	-0.000000	0.000000
H 	2.715106	-0.113544	0.764034
H 	2.665511	0.113544	-0.764034
O 	0.000000	-2.080000	0.000000
H 	-0.140139	-2.715106	0.759606
H 	0.140139	-2.665511	-0.759606
O 	-2.080000	0.000000	0.000000
H 	-2.715106	0.166563	0.754252
H 	-2.665511	-0.166563	-0.754252
O 	0.000000	0.000000	2.080000
H 	0.747980	0.192785	2.715106
H 	-0.747980	-0.192785	2.665511
O 	0.000000	-0.000000	-2.080000
H 	-0.768061	0.081984	-2.715106
H 	0.768061	-0.081984	-2.665511
