27
06/05/2024 23:20, XYZ structure generated by mol3D Class, molSimplify
Fe 	0.000000	0.000000	0.000000
B 	0.000000	2.100000	0.000000
S 	-0.979062	0.853358	-1.029282
O 	0.979062	1.618319	1.029282
S 	1.707913	2.962103	1.795520
O 	2.440022	3.809177	0.752084
O 	0.629188	3.809173	2.474565
C 	2.889314	2.380875	3.037521
H 	-1.796796	1.518084	-1.888962
H 	2.377467	1.788651	3.767030
H 	3.643495	1.788653	2.562773
H 	3.345379	3.221722	3.516980
O 	2.080000	0.000000	0.000000
H 	2.715106	0.038445	0.771467
H 	2.665511	-0.038445	-0.771467
O 	0.000000	-2.080000	0.000000
H 	0.011497	-2.715106	0.772339
H 	-0.011497	-2.665511	-0.772339
O 	-2.080000	0.000000	0.000000
H 	-2.715106	0.015464	0.772270
H 	-2.665511	-0.015464	-0.772270
O 	0.000000	0.000000	2.080000
H 	0.771260	0.042406	2.715106
H 	-0.771260	-0.042406	2.665511
O 	0.000000	-0.000000	-2.080000
H 	-0.771659	0.034372	-2.715106
H 	0.771659	-0.034372	-2.665511
