29
06/06/2024 01:30, XYZ structure generated by mol3D Class, molSimplify
Fe 	0.000000	0.000000	0.000000
B 	0.000000	2.100000	-0.000000
O 	-0.550916	2.581681	-1.309380
C 	-0.891486	1.465790	-2.118824
S 	0.550916	3.346642	1.309380
O 	1.068724	2.598614	2.540073
O 	1.666877	4.225399	0.739561
C 	-0.853681	4.385911	1.781745
F 	-1.303670	5.035966	0.712242
F 	-1.823480	3.622248	2.276933
F 	-0.466000	5.263177	2.703161
H 	-0.018031	0.873567	-2.295594
H 	-1.628582	0.873569	-1.617963
H 	-1.284472	1.809389	-3.052848
O 	2.080000	0.000000	0.000000
H 	2.715106	-0.249340	-0.731074
H 	2.665511	0.249340	0.731074
O 	0.000000	-2.080000	0.000000
H 	-0.223674	-2.715106	-0.739331
H 	0.223674	-2.665511	0.739331
O 	-2.080000	0.000000	0.000000
H 	-2.715106	-0.376453	-0.674480
H 	-2.665511	0.376453	0.674480
O 	0.000000	0.000000	2.080000
H 	-0.660931	-0.399763	2.715106
H 	0.660931	0.399763	2.665511
O 	0.000000	-0.000000	-2.080000
H 	-0.663258	-0.395890	-2.715106
H 	0.663258	0.395890	-2.665511
