32
06/05/2024 22:55, XYZ structure generated by mol3D Class, molSimplify
Fe 	0.000000	0.000000	0.000000
B 	0.000000	2.100000	-0.000000
N 	-0.601904	2.837816	1.223045
C 	-0.619742	4.307261	1.259292
O 	-1.113265	4.912223	2.262110
N 	-0.066743	5.076970	0.135620
C 	0.601904	2.937779	-1.223045
O 	1.095426	2.332817	-2.225863
N 	0.584065	4.407223	-1.186797
C 	0.013227	5.106959	-0.026877
H 	-0.985617	2.303733	2.002736
H 	0.329348	4.591440	-0.669223
H 	-0.079121	6.096585	0.160771
H 	0.967779	4.941307	-1.966489
H 	0.764610	5.720330	0.424898
H 	-0.803125	5.720328	-0.346640
H 	-0.337312	4.389550	0.685405
O 	2.080000	0.000000	0.000000
H 	2.715106	-0.647936	0.420498
H 	2.665511	0.647936	-0.420498
O 	-0.000000	-2.080000	0.000000
H 	-0.662217	-2.715106	0.397629
H 	0.662217	-2.665511	-0.397629
O 	-2.080000	0.000000	0.000000
H 	-2.715106	0.675691	0.374275
H 	-2.665511	-0.675691	-0.374275
O 	0.000000	0.000000	2.080000
H 	0.350466	0.688341	2.715106
H 	-0.350466	-0.688341	2.665511
O 	0.000000	0.000000	-2.080000
H 	0.690982	0.345230	-2.715106
H 	-0.690982	-0.345230	-2.665511
