32
06/06/2024 03:15, XYZ structure generated by mol3D Class, molSimplify
Fe 	0.000000	0.000000	0.000000
B 	0.000000	2.100000	0.000000
O 	-1.314671	1.387173	-0.116267
C 	-2.519079	2.131790	-0.222782
C 	-3.616378	1.761346	0.537000
C 	-4.825097	2.379030	0.137607
C 	-4.899975	3.460168	-0.617078
C 	-3.762532	3.812813	-1.288879
C 	-2.572089	3.170055	-1.048880
N 	1.314671	1.287213	0.116267
N 	2.428547	1.891168	0.214776
N 	3.542424	2.495123	0.313285
H 	-3.555506	1.070731	1.352013
H 	-5.742267	1.939603	0.470177
H 	-5.802247	4.029542	-0.698436
H 	-3.799987	4.600667	-2.011917
H 	-1.679660	3.509221	-1.532033
O 	2.080000	0.000000	0.000000
H 	2.715106	0.080234	-0.768246
H 	2.665511	-0.080234	0.768246
O 	0.000000	-2.080000	0.000000
H 	0.106997	-2.715106	-0.764978
H 	-0.106997	-2.665511	0.764978
O 	-2.080000	0.000000	0.000000
H 	-2.715106	-0.574364	0.516475
H 	-2.665511	0.574364	-0.516475
O 	0.000000	0.000000	2.080000
H 	0.536205	-0.555989	2.715106
H 	-0.536205	0.555989	2.665511
O 	0.000000	0.000000	-2.080000
H 	-0.761254	-0.130891	-2.715106
H 	0.761254	0.130891	-2.665511
