29
06/06/2024 01:55, XYZ structure generated by mol3D Class, molSimplify
Fe 	0.000000	0.000000	0.000000
B 	0.000000	2.100000	0.000000
C 	-0.398554	2.694448	1.431009
O 	-0.447129	3.952386	1.605418
C 	-0.719084	1.754676	2.581873
S 	0.398554	3.268533	-1.431009
O 	0.745488	2.449860	-2.676677
O 	-0.817336	4.150986	-1.722837
N 	1.768983	4.283344	-0.995483
H 	-1.552242	1.137714	2.317099
H 	0.130994	1.137716	2.785902
H 	-0.961639	2.327048	3.452767
H 	2.579338	3.695214	-0.800988
H 	1.984076	4.913980	-1.767773
O 	2.080000	0.000000	0.000000
H 	2.715106	-0.210659	-0.743144
H 	2.665511	0.210659	0.743144
O 	-0.000000	-2.080000	0.000000
H 	-0.184596	-2.715106	-0.750043
H 	0.184596	-2.665511	0.750043
O 	-2.080000	0.000000	0.000000
H 	-2.715106	0.158307	-0.756028
H 	-2.665511	-0.158307	0.756028
O 	0.000000	0.000000	2.080000
H 	-0.765230	0.105184	2.715106
H 	0.765230	-0.105184	2.665511
O 	0.000000	0.000000	-2.080000
H 	0.719592	0.280762	-2.715106
H 	-0.719592	-0.280762	-2.665511
