26
06/06/2024 02:20, XYZ structure generated by mol3D Class, molSimplify
Fe 	0.000000	0.000000	0.000000
B 	0.000000	2.100000	0.000000
S 	0.791342	3.045000	1.432778
S 	-0.791342	3.045000	-1.432778
O 	-1.353749	2.050470	-2.451054
O 	-1.924395	3.924878	-0.899597
C 	0.455965	4.085596	-2.231206
F 	0.944711	4.949868	-1.346298
F 	1.440617	3.320960	-2.694554
F 	-0.100905	4.750596	-3.239457
H 	1.291109	2.161227	2.337642
O 	2.080000	0.000000	0.000000
H 	2.715106	-0.529279	-0.562587
H 	2.665511	0.529279	0.562587
O 	-0.000000	-2.080000	0.000000
H 	-0.509322	-2.715106	-0.580716
H 	0.509322	-2.665511	0.580716
O 	-2.080000	0.000000	0.000000
H 	-2.715106	0.488745	-0.598137
H 	-2.665511	-0.488745	0.598137
O 	0.000000	0.000000	2.080000
H 	-0.614830	0.467573	2.715106
H 	0.614830	-0.467573	2.665511
O 	0.000000	-0.000000	-2.080000
H 	0.630773	0.445831	-2.715106
H 	-0.630773	-0.445831	-2.665511
