28
06/06/2024 00:16, XYZ structure generated by mol3D Class, molSimplify
Fe 	0.000000	0.000000	0.000000
B 	0.000000	2.100000	0.000000
N 	0.227911	2.837816	1.343943
C 	0.415317	2.148927	2.449043
S 	0.646070	1.300702	3.809743
C 	-0.227911	2.937779	-1.343943
O 	-0.414783	2.332817	-2.445890
N 	-0.221156	4.407223	-1.304113
C 	-0.005009	5.106959	-0.029534
H 	-0.366449	4.941307	-2.160877
H 	0.868644	5.720330	-0.103074
H 	-0.854062	5.720328	0.189068
H 	0.127723	4.389550	0.753157
O 	2.080000	-0.000000	0.000000
H 	2.715106	-0.765316	0.104554
H 	2.665511	0.765316	-0.104554
O 	0.000000	-2.080000	0.000000
H 	-0.768498	-2.715106	0.077781
H 	0.768498	-2.665511	-0.077781
O 	-2.080000	0.000000	0.000000
H 	-2.715106	0.770745	0.050913
H 	-2.665511	-0.770745	-0.050913
O 	0.000000	0.000000	2.080000
H 	0.683402	-0.360002	2.715106
H 	-0.683402	0.360002	2.665511
O 	0.000000	0.000000	-2.080000
H 	0.576010	0.514638	-2.715106
H 	-0.576010	-0.514638	-2.665511
