26
06/05/2024 22:46, XYZ structure generated by mol3D Class, molSimplify
Fe 	0.000000	0.000000	0.000000
B 	0.000000	2.100000	0.000000
C 	1.474099	2.694448	0.183480
N 	2.635841	3.162935	0.328081
S 	-1.474099	3.268533	-0.183480
O 	-2.757276	2.449860	-0.343196
O 	-1.583694	4.150986	1.062129
C 	-1.238624	4.312173	-1.643434
F 	-0.123510	5.023620	-1.504636
F 	-1.143383	3.545299	-2.725900
F 	-2.275953	5.134474	-1.772549
O 	2.080000	-0.000000	0.000000
H 	2.715106	-0.631577	-0.444691
H 	2.665511	0.631577	0.444691
O 	-0.000000	-2.080000	0.000000
H 	-0.615673	-2.715106	-0.466462
H 	0.615673	-2.665511	0.466462
O 	-2.080000	0.000000	0.000000
H 	-2.715106	0.372718	-0.676551
H 	-2.665511	-0.372718	0.676551
O 	0.000000	0.000000	2.080000
H 	-0.689146	0.348880	2.715106
H 	0.689146	-0.348880	2.665511
O 	0.000000	0.000000	-2.080000
H 	0.510906	0.579322	-2.715106
H 	-0.510906	-0.579322	-2.665511
