33
06/06/2024 00:47, XYZ structure generated by mol3D Class, molSimplify
Fe 	0.000000	0.000000	0.000000
B 	0.000000	2.100000	0.000000
C 	-0.468714	2.976053	-1.254128
C 	-1.642328	3.853058	-0.849289
C 	0.682743	3.853055	-1.718255
C 	-0.891836	2.054295	-2.386264
O 	0.468714	2.776364	1.254128
C 	0.827956	1.794829	2.215343
N 	1.146964	0.923221	3.068905
H 	-1.344472	4.501927	-0.052326
H 	-1.955780	4.438917	-1.687989
H 	-2.452892	3.235694	-0.522569
H 	1.508908	3.235694	-2.003241
H 	0.369291	4.438913	-2.556955
H 	0.980595	4.501922	-0.921288
H 	-0.065674	1.436930	-2.671249
H 	-1.702401	1.436932	-2.059544
H 	-1.205288	2.640156	-3.224962
O 	2.080000	0.000000	0.000000
H 	2.715106	0.673622	0.377986
H 	2.665511	-0.673622	-0.377986
O 	-0.000000	-2.080000	0.000000
H 	0.660020	-2.715106	0.401265
H 	-0.660020	-2.665511	-0.401265
O 	-2.080000	0.000000	0.000000
H 	-2.715106	-0.116866	0.763533
H 	-2.665511	0.116866	-0.763533
O 	0.000000	0.000000	2.080000
H 	-0.489217	0.597752	2.715106
H 	0.489217	-0.597752	2.665511
O 	0.000000	0.000000	-2.080000
H 	-0.763334	-0.118160	-2.715106
H 	0.763334	0.118160	-2.665511
