30
06/06/2024 01:20, XYZ structure generated by mol3D Class, molSimplify
Fe 	0.000000	0.000000	0.000000
B 	-0.000000	2.100000	-0.000000
N 	-1.313650	2.837816	0.363937
C 	-1.352583	4.307261	0.374723
O 	-2.429691	4.912223	0.673128
N 	-0.145667	5.076970	0.040356
C 	1.313650	2.937779	-0.363937
O 	2.390759	2.332817	-0.662342
C 	1.273393	4.457205	-0.352784
H 	-2.151102	2.303733	0.595947
H 	0.718800	4.591440	-0.199138
H 	-0.172681	6.096585	0.047840
H 	0.544784	4.799876	-1.057486
H 	1.011291	4.799875	0.626388
H 	2.235767	4.841457	-0.619403
O 	2.080000	0.000000	0.000000
H 	2.715106	-0.163579	-0.754905
H 	2.665511	0.163579	0.754905
O 	0.000000	-2.080000	0.000000
H 	-0.137133	-2.715106	-0.760154
H 	0.137133	-2.665511	0.760154
O 	-2.080000	0.000000	0.000000
H 	-2.715106	0.110521	-0.764477
H 	-2.665511	-0.110521	0.764477
O 	0.000000	0.000000	2.080000
H 	-0.767868	0.083773	2.715106
H 	0.767868	-0.083773	2.665511
O 	0.000000	-0.000000	-2.080000
H 	0.056924	-0.770324	-2.715106
H 	-0.056924	0.770324	-2.665511
