32
06/05/2024 23:24, XYZ structure generated by mol3D Class, molSimplify
Fe 	0.000000	0.000000	0.000000
B 	0.000000	2.100000	0.000000
O 	0.778028	1.423636	1.089588
C 	1.468529	2.201133	2.056598
C 	2.765083	1.858967	2.403637
C 	3.237973	2.510404	3.567276
C 	2.696267	3.595004	4.090929
C 	1.440711	3.918067	3.656579
C 	0.859048	3.242450	2.611063
C 	-0.778028	1.223947	-1.089588
O 	-1.437226	1.797008	-2.012760
Cl 	-0.720325	-0.553281	-1.008777
H 	3.355491	1.164981	1.842655
H 	4.094022	2.095394	4.057018
H 	3.212179	4.189008	4.816115
H 	0.903377	4.708394	4.137781
H 	-0.093678	3.558277	2.240299
O 	2.080000	-0.000000	0.000000
H 	2.715106	0.417627	-0.649790
H 	2.665511	-0.417627	0.649790
O 	-0.000000	-2.080000	0.000000
H 	0.440050	-2.715106	-0.634819
H 	-0.440050	-2.665511	0.634819
O 	-2.080000	0.000000	0.000000
H 	-2.715106	-0.461937	-0.619075
H 	-2.665511	0.461937	0.619075
O 	0.000000	0.000000	2.080000
H 	0.063685	-0.769795	2.715106
H 	-0.063685	0.769795	2.665511
O 	0.000000	-0.000000	-2.080000
H 	-0.090512	-0.767103	-2.715106
H 	0.090512	0.767103	-2.665511
