33
06/06/2024 01:52, XYZ structure generated by mol3D Class, molSimplify
Fe 	0.000000	0.000000	0.000000
B 	0.000000	2.100000	0.000000
C 	-1.225023	1.223947	0.540230
O 	1.225023	1.423636	-0.540230
C 	2.312232	2.201133	-1.019685
C 	2.914800	1.859789	-2.219252
C 	4.149678	2.512077	-2.446512
C 	4.552138	3.596689	-1.809598
C 	3.872379	3.918904	-0.667864
C 	2.731170	3.242445	-0.310179
H 	-1.597926	0.606582	-0.250152
H 	-0.892886	0.606584	1.348592
H 	-2.003492	1.872816	0.883532
H 	2.485402	1.165795	-2.911271
H 	4.802853	2.097748	-3.185831
H 	5.366389	4.191333	-2.167780
H 	4.234335	4.709223	-0.043938
H 	2.174997	3.557606	0.547868
O 	2.080000	0.000000	0.000000
H 	2.715106	0.318890	0.703526
H 	2.665511	-0.318890	-0.703526
O 	-0.000000	-2.080000	0.000000
H 	0.294143	-2.715106	0.714227
H 	-0.294143	-2.665511	-0.714227
O 	-2.080000	0.000000	0.000000
H 	-2.715106	-0.269038	0.724057
H 	-2.665511	0.269038	-0.724057
O 	0.000000	0.000000	2.080000
H 	0.733005	-0.243605	2.715106
H 	-0.733005	0.243605	2.665511
O 	0.000000	-0.000000	-2.080000
H 	-0.772407	-0.005154	-2.715106
H 	0.772407	0.005154	-2.665511
