24
06/06/2024 02:34, XYZ structure generated by mol3D Class, molSimplify
Fe 	0.000000	0.000000	0.000000
B 	-0.000000	2.100000	0.000000
N 	1.338995	2.875000	-0.094696
O 	1.490300	3.662633	1.015998
N 	-1.338995	2.875000	0.094696
C 	-2.475543	2.217175	0.175074
S 	-3.874965	1.407200	0.274043
H 	2.112342	2.212171	-0.149388
H 	0.732115	4.312464	1.069614
O 	2.080000	0.000000	0.000000
H 	2.715106	0.040568	-0.771359
H 	2.665511	-0.040568	0.771359
O 	-0.000000	-2.080000	0.000000
H 	0.067463	-2.715106	-0.769473
H 	-0.067463	-2.665511	0.769473
O 	-2.080000	0.000000	0.000000
H 	-2.715106	-0.173619	0.752659
H 	-2.665511	0.173619	-0.752659
O 	0.000000	0.000000	2.080000
H 	0.758260	-0.147246	2.715106
H 	-0.758260	0.147246	2.665511
O 	0.000000	-0.000000	-2.080000
H 	-0.762937	-0.120693	-2.715106
H 	0.762937	0.120693	-2.665511
