25
06/05/2024 23:32, XYZ structure generated by mol3D Class, molSimplify
Fe 	0.000000	0.000000	0.000000
B 	0.000000	2.100000	0.000000
O 	-0.435058	1.618319	1.352297
C 	-0.704006	2.734210	2.188273
S 	0.435058	0.853358	-1.352297
C 	0.918662	1.738030	-2.855488
N 	1.255572	2.354351	-3.902711
H 	0.181505	3.326433	2.288479
H 	-1.481836	3.326431	1.753353
H 	-1.014348	2.390611	3.152911
O 	2.080000	0.000000	0.000000
H 	2.715106	-0.427541	0.643311
H 	2.665511	0.427541	-0.643311
O 	0.000000	-2.080000	0.000000
H 	-0.449731	-2.715106	0.627998
H 	0.449731	-2.665511	-0.627998
O 	-2.080000	0.000000	0.000000
H 	-2.715106	0.471374	0.611920
H 	-2.665511	-0.471374	-0.611920
O 	0.000000	0.000000	2.080000
H 	0.595097	0.492443	2.715106
H 	-0.595097	-0.492443	2.665511
O 	0.000000	0.000000	-2.080000
H 	0.512911	0.577548	-2.715106
H 	-0.512911	-0.577548	-2.665511
