24
06/06/2024 01:23, XYZ structure generated by mol3D Class, molSimplify
Fe 	0.000000	0.000000	0.000000
B 	0.000000	2.100000	0.000000
O 	0.730457	2.581681	-1.218366
S 	-0.730457	3.346642	1.218366
C 	-1.542420	2.461970	2.572682
H 	1.048457	1.795842	-1.748775
H 	-2.324952	1.847593	2.178875
H 	-0.826348	1.847595	3.077344
H 	-1.955959	3.167741	3.262445
O 	2.080000	0.000000	0.000000
H 	2.715106	-0.371673	0.677126
H 	2.665511	0.371673	-0.677126
O 	-0.000000	-2.080000	0.000000
H 	-0.395078	-2.715106	0.663742
H 	0.395078	-2.665511	-0.663742
O 	-2.080000	0.000000	0.000000
H 	-2.715106	0.418001	0.649550
H 	-2.665511	-0.418001	-0.649550
O 	0.000000	0.000000	2.080000
H 	-0.739604	-0.222769	2.715106
H 	0.739604	0.222769	2.665511
O 	0.000000	0.000000	-2.080000
H 	-0.769758	0.064128	-2.715106
H 	0.769758	-0.064128	-2.665511
