25
06/06/2024 02:57, XYZ structure generated by mol3D Class, molSimplify
Fe 	0.000000	0.000000	0.000000
B 	0.000000	2.100000	0.000000
C 	1.240370	2.900000	-0.617643
C 	-1.240370	2.900000	0.617643
Cl 	-2.451471	1.743306	1.220712
Cl 	-0.676947	3.923348	1.960668
Cl 	-1.972600	3.923349	-0.641323
H 	0.901684	3.515161	-1.424965
H 	1.680535	3.515159	0.139148
H 	1.968387	2.204679	-0.980160
O 	2.080000	0.000000	0.000000
H 	2.715106	-0.710118	-0.303928
H 	2.665511	0.710118	0.303928
O 	-0.000000	-2.080000	0.000000
H 	-0.699078	-2.715106	-0.328526
H 	0.699078	-2.665511	0.328526
O 	-2.080000	0.000000	0.000000
H 	-2.715106	0.581443	-0.508492
H 	-2.665511	-0.581443	0.508492
O 	0.000000	0.000000	2.080000
H 	-0.528474	0.563343	2.715106
H 	0.528474	-0.563343	2.665511
O 	0.000000	0.000000	-2.080000
H 	0.720689	0.277934	-2.715106
H 	-0.720689	-0.277934	-2.665511
