27
06/06/2024 01:49, XYZ structure generated by mol3D Class, molSimplify
Fe 	0.000000	0.000000	0.000000
B 	0.000000	2.100000	0.000000
C 	-0.703664	2.694448	-1.308239
O 	-0.789426	3.952386	-1.467685
S 	0.703664	3.268533	1.308239
O 	1.316192	2.449860	2.447038
O 	1.782817	4.150986	0.676587
C 	-0.623137	4.312173	1.961317
F 	-1.155439	5.023620	0.971672
F 	-1.560948	3.545299	2.510238
F 	-0.127966	5.134474	2.881929
H 	-1.102035	2.032898	-2.048882
O 	2.080000	0.000000	0.000000
H 	2.715106	-0.679702	0.366939
H 	2.665511	0.679702	-0.366939
O 	-0.000000	-2.080000	0.000000
H 	-0.692094	-2.715106	0.342995
H 	0.692094	-2.665511	-0.342995
O 	-2.080000	0.000000	0.000000
H 	-2.715106	0.703643	0.318632
H 	-2.665511	-0.703643	-0.318632
O 	0.000000	0.000000	2.080000
H 	0.112338	0.764212	2.715106
H 	-0.112338	-0.764212	2.665511
O 	0.000000	-0.000000	-2.080000
H 	0.358309	0.684291	-2.715106
H 	-0.358309	-0.684291	-2.665511
