30
06/06/2024 00:58, XYZ structure generated by mol3D Class, molSimplify
Fe 	0.000000	0.000000	0.000000
B 	0.000000	2.100000	0.000000
O 	-1.261711	1.599615	-0.638515
C 	-2.224952	2.522079	-1.125983
C 	-3.565949	2.314595	-0.848059
C 	-4.441656	3.116299	-1.617773
C 	-4.080525	4.206252	-2.270157
C 	-2.737875	4.388775	-2.452985
C 	-1.823085	3.567279	-1.839635
Cl 	1.261711	0.891701	0.638515
H 	-3.908556	1.611813	-0.117567
H 	-5.467845	2.818756	-1.675259
H 	-4.799956	4.908740	-2.635984
H 	-2.394597	5.182774	-3.082767
H 	-0.777390	3.771621	-1.937946
O 	2.080000	0.000000	0.000000
H 	2.715106	-0.254561	-0.729273
H 	2.665511	0.254561	0.729273
O 	-0.000000	-2.080000	0.000000
H 	-0.228954	-2.715106	-0.737712
H 	0.228954	-2.665511	0.737712
O 	-2.080000	0.000000	0.000000
H 	-2.715106	0.203069	-0.745253
H 	-2.665511	-0.203069	0.745253
O 	0.000000	0.000000	2.080000
H 	-0.751887	0.176936	2.715106
H 	0.751887	-0.176936	2.665511
O 	0.000000	-0.000000	-2.080000
H 	0.757603	0.150588	-2.715106
H 	-0.757603	-0.150588	-2.665511
