26
06/06/2024 00:00, XYZ structure generated by mol3D Class, molSimplify
Fe 	0.000000	0.000000	0.000000
B 	0.000000	2.100000	0.000000
S 	1.328181	3.268533	-0.665257
C 	2.695517	2.300314	-1.350125
C 	-1.328181	2.694448	0.665257
O 	-2.221295	1.908687	1.112598
O 	-1.509049	4.099965	0.755849
H 	3.114964	1.683352	-0.583103
H 	2.332451	1.683354	-2.145388
H 	3.447450	2.961864	-1.726751
H 	-2.339163	4.471495	1.171635
O 	2.080000	-0.000000	-0.000000
H 	2.715106	0.246818	0.731930
H 	2.665511	-0.246818	-0.731930
O 	-0.000000	-2.080000	0.000000
H 	0.221123	-2.715106	0.740097
H 	-0.221123	-2.665511	-0.740097
O 	-2.080000	0.000000	0.000000
H 	-2.715106	-0.195160	0.747364
H 	-2.665511	0.195160	-0.747364
O 	0.000000	0.000000	2.080000
H 	0.753719	-0.168958	2.715106
H 	-0.753719	0.168958	2.665511
O 	0.000000	0.000000	-2.080000
H 	-0.740036	-0.221329	-2.715106
H 	0.740036	0.221329	-2.665511
