25
06/06/2024 03:31, XYZ structure generated by mol3D Class, molSimplify
Fe 	0.000000	0.000000	0.000000
B 	0.000000	2.100000	0.000000
N 	-0.577418	2.837816	1.234793
O 	-1.630603	3.623158	0.846283
C 	0.577418	2.937779	-1.234793
O 	1.050864	2.332817	-2.247244
O 	0.560887	4.357242	-1.199443
H 	-0.897984	2.153931	1.920314
H 	-1.316319	4.293632	0.174204
H 	0.921774	4.880854	-1.971188
O 	2.080000	0.000000	0.000000
H 	2.715106	0.240350	0.734079
H 	2.665511	-0.240350	-0.734079
O 	-0.000000	-2.080000	0.000000
H 	0.214585	-2.715106	0.742020
H 	-0.214585	-2.665511	-0.742020
O 	-2.080000	0.000000	0.000000
H 	-2.715106	-0.188558	0.749057
H 	-2.665511	0.188558	-0.749057
O 	0.000000	0.000000	2.080000
H 	0.755181	-0.162302	2.715106
H 	-0.755181	0.162302	2.665511
O 	0.000000	0.000000	-2.080000
H 	0.704934	0.315766	-2.715106
H 	-0.704934	-0.315766	-2.665511
