23
06/06/2024 00:31, XYZ structure generated by mol3D Class, molSimplify
Fe 	0.000000	0.000000	0.000000
B 	0.000000	2.100000	0.000000
O 	1.009019	2.776364	0.880007
C 	-1.009019	2.976053	-0.880007
H 	1.553633	2.085142	1.354988
H 	-1.650225	2.327189	-1.439230
H 	-1.600045	3.593416	-0.236228
H 	-0.451566	3.593416	-1.553067
O 	2.080000	0.000000	0.000000
H 	2.715106	-0.644996	0.424994
H 	2.665511	0.644996	-0.424994
O 	-0.000000	-2.080000	0.000000
H 	-0.659435	-2.715106	0.402225
H 	0.659435	-2.665511	-0.402225
O 	-2.080000	0.000000	0.000000
H 	-2.715106	0.673071	0.378966
H 	-2.665511	-0.673071	-0.378966
O 	0.000000	0.000000	2.080000
H 	0.355245	0.685887	2.715106
H 	-0.355245	-0.685887	2.665511
O 	0.000000	-0.000000	-2.080000
H 	-0.331092	0.697867	-2.715106
H 	0.331092	-0.697867	-2.665511
