33
06/06/2024 00:20, XYZ structure generated by mol3D Class, molSimplify
Fe 	0.000000	0.000000	0.000000
B 	0.000000	2.100000	0.000000
N 	-1.270390	2.875000	0.433572
C 	-1.270390	4.345000	0.433572
C 	-1.895886	5.061178	1.440751
C 	-2.179417	6.404366	1.097959
C 	-1.614425	7.057634	0.098940
C 	-0.953237	6.299278	-0.826900
C 	-0.750557	4.955395	-0.624933
N 	1.270390	2.875000	-0.433572
C 	2.348705	2.217175	-0.801590
S 	3.676426	1.407200	-1.254729
H 	-2.106388	2.365000	0.718890
H 	-2.142309	4.637150	2.391737
H 	-2.901844	6.927168	1.689295
H 	-1.671035	8.123094	0.018377
H 	-0.588394	6.758964	-1.721594
H 	-0.168560	4.395633	-1.326963
O 	2.080000	0.000000	0.000000
H 	2.715106	0.599604	0.486944
H 	2.665511	-0.599604	-0.486944
O 	0.000000	-2.080000	0.000000
H 	0.582245	-2.715106	0.507574
H 	-0.582245	-2.665511	-0.507574
O 	-2.080000	0.000000	0.000000
H 	-2.715106	-0.564176	0.527584
H 	-2.665511	0.564176	-0.527584
O 	0.000000	0.000000	2.080000
H 	0.546952	-0.545420	2.715106
H 	-0.546952	0.545420	2.665511
O 	0.000000	0.000000	-2.080000
H 	-0.771326	-0.041177	-2.715106
H 	0.771326	0.041177	-2.665511
