28
06/06/2024 01:16, XYZ structure generated by mol3D Class, molSimplify
Fe 	0.000000	0.000000	0.000000
B 	0.000000	2.100000	0.000000
O 	-0.861670	2.776364	-1.024722
C 	-1.626402	1.998867	-1.934164
O 	-1.580773	0.729946	-1.879900
C 	-2.499561	2.684250	-2.972549
C 	0.861670	2.976053	1.024722
Cl 	1.772581	1.896635	2.108004
Cl 	1.997886	4.003067	0.117719
Cl 	-0.226851	4.003068	1.988446
H 	-3.226738	3.295291	-2.479860
H 	-1.889401	3.295289	-3.604401
H 	-2.997200	1.944642	-3.564356
O 	2.080000	-0.000000	-0.000000
H 	2.715106	0.559590	0.532446
H 	2.665511	-0.559590	-0.532446
O 	-0.000000	-2.080000	0.000000
H 	0.540667	-2.715106	0.551651
H 	-0.540667	-2.665511	-0.551651
O 	-2.080000	0.000000	0.000000
H 	-2.715106	0.492114	0.595369
H 	-2.665511	-0.492114	-0.595369
O 	0.000000	0.000000	2.080000
H 	0.139754	0.759677	2.715106
H 	-0.139754	-0.759677	2.665511
O 	0.000000	-0.000000	-2.080000
H 	-0.016677	0.772245	-2.715106
H 	0.016677	-0.772245	-2.665511
