25
06/06/2024 00:42, XYZ structure generated by mol3D Class, molSimplify
Fe 	0.000000	0.000000	0.000000
B 	0.000000	2.100000	0.000000
N 	0.591952	2.875000	1.204769
N 	-0.415476	3.691379	1.783572
N 	-0.591952	2.875000	-1.204769
C 	-1.094405	2.217175	-2.227384
O 	-1.579768	1.581725	-3.215216
H 	0.933839	2.212171	1.900592
H 	-0.025934	4.201377	2.576389
H 	-0.757359	4.354207	1.087745
O 	2.080000	0.000000	0.000000
H 	2.715106	-0.505815	-0.583773
H 	2.665511	0.505815	0.583773
O 	0.000000	-2.080000	0.000000
H 	-0.485134	-2.715106	-0.601070
H 	0.485134	-2.665511	0.601070
O 	-2.080000	0.000000	0.000000
H 	-2.715106	0.463861	-0.617635
H 	-2.665511	-0.463861	0.617635
O 	0.000000	0.000000	2.080000
H 	-0.633447	0.442023	2.715106
H 	0.633447	-0.442023	2.665511
O 	0.000000	0.000000	-2.080000
H 	0.459877	0.620607	-2.715106
H 	-0.459877	-0.620607	-2.665511
