34
06/06/2024 00:55, XYZ structure generated by mol3D Class, molSimplify
Fe 	0.000000	0.000000	0.000000
B 	0.000000	2.100000	0.000000
O 	-0.839798	1.350000	-0.991080
C 	-1.634806	2.060000	-1.929303
C 	-2.942251	1.660581	-2.152049
C 	-3.532091	2.242844	-3.298832
C 	-3.074585	3.319543	-3.911551
C 	-1.800130	3.702525	-3.597643
C 	-1.110763	3.094282	-2.576512
O 	0.839798	1.350000	0.991080
C 	1.537546	2.272763	1.814522
F 	2.320497	3.037402	1.058735
F 	0.663497	3.037399	2.462804
F 	2.282166	1.607763	2.693280
H 	-3.459291	0.974004	-1.514725
H 	-4.409866	1.778495	-3.697316
H 	-3.669273	3.862974	-4.615774
H 	-1.332888	4.487194	-4.155209
H 	-0.142870	3.457334	-2.300330
O 	2.080000	0.000000	0.000000
H 	2.715106	0.613708	-0.469044
H 	2.665511	-0.613708	0.469044
O 	-0.000000	-2.080000	0.000000
H 	0.629703	-2.715106	-0.447341
H 	-0.629703	-2.665511	0.447341
O 	-2.080000	0.000000	0.000000
H 	-2.715106	-0.644932	-0.425092
H 	-2.665511	0.644932	0.425092
O 	0.000000	0.000000	2.080000
H 	-0.072557	-0.769009	2.715106
H 	0.072557	0.769009	2.665511
O 	0.000000	-0.000000	-2.080000
H 	0.066351	-0.769570	-2.715106
H 	-0.066351	0.769570	-2.665511
