25
06/06/2024 01:37, XYZ structure generated by mol3D Class, molSimplify
Fe 	0.000000	0.000000	0.000000
B 	0.000000	2.100000	0.000000
C 	-0.737965	2.900000	1.172778
C 	0.737965	2.900000	-1.172778
O 	1.324139	2.264550	-2.104330
O 	0.737965	4.320000	-1.172778
H 	-0.028713	3.515161	1.686041
H 	-1.507593	3.515159	0.755463
H 	-1.171103	2.204679	1.861124
H 	1.199193	4.820000	-1.905764
O 	2.080000	0.000000	0.000000
H 	2.715106	-0.340526	0.693312
H 	2.665511	0.340526	-0.693312
O 	0.000000	-2.080000	0.000000
H 	-0.364515	-2.715106	0.681006
H 	0.364515	-2.665511	-0.681006
O 	-2.080000	0.000000	0.000000
H 	-2.715106	0.388060	0.667869
H 	-2.665511	-0.388060	-0.667869
O 	0.000000	0.000000	2.080000
H 	0.653920	0.411131	2.715106
H 	-0.653920	-0.411131	2.665511
O 	0.000000	-0.000000	-2.080000
H 	-0.568383	0.523049	-2.715106
H 	0.568383	-0.523049	-2.665511
