25
06/06/2024 02:59, XYZ structure generated by mol3D Class, molSimplify
Fe 	0.000000	0.000000	0.000000
B 	0.000000	2.100000	0.000000
N 	0.687906	2.875000	1.152675
N 	-0.269150	3.691379	1.811438
N 	-0.687906	2.875000	-1.152675
N 	-1.251945	2.239550	-2.097794
N 	-1.815984	1.604100	-3.042914
H 	1.085212	2.212171	1.818412
H 	0.183536	4.201377	2.569975
H 	-0.666453	4.354207	1.145698
O 	2.080000	-0.000000	-0.000000
H 	2.715106	-0.126040	-0.762072
H 	2.665511	0.126040	0.762072
O 	-0.000000	-2.080000	0.000000
H 	-0.099367	-2.715106	-0.766007
H 	0.099367	-2.665511	0.766007
O 	-2.080000	0.000000	0.000000
H 	-2.715106	0.072573	-0.769008
H 	-2.665511	-0.072573	0.769008
O 	0.000000	0.000000	2.080000
H 	-0.771072	0.045691	2.715106
H 	0.771072	-0.045691	2.665511
O 	0.000000	-0.000000	-2.080000
H 	-0.107663	-0.764885	-2.715106
H 	0.107663	0.764885	-2.665511
