24
06/06/2024 03:29, XYZ structure generated by mol3D Class, molSimplify
Fe 	0.000000	0.000000	0.000000
B 	0.000000	2.100000	0.000000
F 	-0.708077	2.485323	-1.156829
S 	0.708077	3.416235	1.156829
O 	1.423804	2.736027	2.326157
O 	1.702707	4.289258	0.388182
N 	-0.599444	4.420200	1.773306
H 	-1.262336	3.838356	2.285586
H 	-0.217307	5.130549	2.397626
O 	2.080000	0.000000	0.000000
H 	2.715106	0.522909	0.568512
H 	2.665511	-0.522909	-0.568512
O 	0.000000	-2.080000	0.000000
H 	0.502750	-2.715106	0.586415
H 	-0.502750	-2.665511	-0.586415
O 	-2.080000	0.000000	0.000000
H 	-2.715106	-0.481978	0.603603
H 	-2.665511	0.481978	-0.603603
O 	0.000000	0.000000	2.080000
H 	0.620056	-0.460619	2.715106
H 	-0.620056	0.460619	2.665511
O 	0.000000	-0.000000	-2.080000
H 	-0.530663	-0.561282	-2.715106
H 	0.530663	0.561282	-2.665511
