25
06/06/2024 00:41, XYZ structure generated by mol3D Class, molSimplify
Fe 	0.000000	0.000000	0.000000
B 	0.000000	2.100000	0.000000
C 	-0.386522	2.694448	1.434306
C 	-0.701502	3.178869	2.603136
S 	0.386522	3.268533	-1.434306
O 	0.722982	2.449860	-2.682844
O 	-0.831777	4.150986	-1.715912
O 	1.721525	4.254514	-1.022350
H 	-0.959989	3.576406	3.562328
H 	1.926034	4.872785	-1.781242
O 	2.080000	0.000000	0.000000
H 	2.715106	0.396674	0.662789
H 	2.665511	-0.396674	-0.662789
O 	-0.000000	-2.080000	0.000000
H 	0.373301	-2.715106	0.676229
H 	-0.373301	-2.665511	-0.676229
O 	-2.080000	0.000000	0.000000
H 	-2.715106	-0.349474	0.688845
H 	-2.665511	0.349474	-0.688845
O 	0.000000	0.000000	2.080000
H 	0.700622	-0.325220	2.715106
H 	-0.700622	0.325220	2.665511
O 	0.000000	0.000000	-2.080000
H 	-0.556172	0.536015	-2.715106
H 	0.556172	-0.536015	-2.665511
