28
06/06/2024 00:28, XYZ structure generated by mol3D Class, molSimplify
Fe 	0.000000	0.000000	0.000000
B 	0.000000	2.100000	0.000000
N 	1.330246	2.637386	-0.586653
C 	2.015270	3.457253	0.423030
S 	-1.330246	3.307636	0.586653
C 	-2.752555	2.380441	1.213907
H 	1.927100	1.853243	-0.849872
H 	2.221708	2.860481	1.286828
H 	2.933571	3.828220	0.018051
H 	1.389155	4.279833	0.699149
H 	-3.148939	1.764536	0.433881
H 	-2.443880	1.764538	2.032615
H 	-3.505657	3.064129	1.546033
O 	2.080000	-0.000000	-0.000000
H 	2.715106	0.510361	0.579803
H 	2.665511	-0.510361	-0.579803
O 	0.000000	-2.080000	0.000000
H 	0.489816	-2.715106	0.597261
H 	-0.489816	-2.665511	-0.597261
O 	-2.080000	0.000000	0.000000
H 	-2.715106	0.178421	-0.751536
H 	-2.665511	-0.178421	0.751536
O 	0.000000	0.000000	2.080000
H 	-0.757305	0.152084	2.715106
H 	0.757305	-0.152084	2.665511
O 	0.000000	0.000000	-2.080000
H 	0.733894	0.240915	-2.715106
H 	-0.733894	-0.240915	-2.665511
