31
06/06/2024 01:20, XYZ structure generated by mol3D Class, molSimplify
Fe 	0.000000	0.000000	0.000000
B 	0.000000	2.100000	0.000000
C 	-0.742554	2.900000	1.169878
C 	-0.565623	2.472887	2.475571
C 	-1.488539	3.031079	3.391376
C 	-2.214377	4.109718	3.159612
C 	-2.294388	4.520750	1.858035
C 	-1.520867	3.937148	0.883885
C 	0.742554	2.900000	-1.169878
O 	1.332374	2.264550	-2.099126
H 	0.199558	1.783386	2.765373
H 	-1.606578	2.545476	4.337503
H 	-2.713035	4.633810	3.948007
H 	-2.969086	5.308221	1.594271
H 	-1.545885	4.321897	-0.114235
H 	0.742554	3.970000	-1.169878
O 	2.080000	0.000000	0.000000
H 	2.715106	-0.352518	-0.687293
H 	2.665511	0.352518	0.687293
O 	0.000000	-2.080000	0.000000
H 	-0.328317	-2.715106	-0.699177
H 	0.328317	-2.665511	0.699177
O 	-2.080000	0.000000	0.000000
H 	-2.715106	0.303716	-0.710209
H 	-2.665511	-0.303716	0.710209
O 	0.000000	0.000000	2.080000
H 	-0.766412	0.096190	2.715106
H 	0.766412	-0.096190	2.665511
O 	0.000000	0.000000	-2.080000
H 	0.669266	0.385646	-2.715106
H 	-0.669266	-0.385646	-2.665511
