22
06/06/2024 01:22, XYZ structure generated by mol3D Class, molSimplify
Fe 	0.000000	0.000000	0.000000
B 	0.000000	2.100000	0.000000
N 	0.695493	2.637386	1.276717
N 	1.163166	1.825331	2.135224
N 	1.630839	1.013276	2.993732
S 	-0.695493	3.307636	-1.276717
H 	-1.254240	2.610959	-2.302408
O 	2.080000	0.000000	-0.000000
H 	2.715106	0.326165	0.700183
H 	2.665511	-0.326165	-0.700183
O 	0.000000	-2.080000	0.000000
H 	0.301530	-2.715106	0.711140
H 	-0.301530	-2.665511	-0.711140
O 	-2.080000	0.000000	0.000000
H 	-2.715106	-0.276528	0.721230
H 	-2.665511	0.276528	-0.721230
O 	0.000000	0.000000	2.080000
H 	-0.420948	0.647644	2.715106
H 	0.420948	-0.647644	2.665511
O 	0.000000	0.000000	-2.080000
H 	0.632559	-0.443294	-2.715106
H 	-0.632559	0.443294	-2.665511
