26
06/05/2024 22:54, XYZ structure generated by mol3D Class, molSimplify
Fe 	0.000000	0.000000	0.000000
B 	-0.000000	2.100000	-0.000000
N 	-0.817114	2.637386	-1.202514
O 	-0.006800	3.401480	-2.000294
S 	0.817114	3.307636	1.202514
O 	1.555846	2.523652	2.289676
O 	1.812156	4.188577	0.443494
O 	-0.380770	4.291927	1.923862
H 	-1.183737	1.853243	-1.742058
H 	0.352631	4.170246	-1.471325
H 	0.051566	4.930888	2.560113
O 	2.080000	-0.000000	0.000000
H 	2.715106	-0.641054	0.430917
H 	2.665511	0.641054	-0.430917
O 	-0.000000	-2.080000	0.000000
H 	-0.655702	-2.715106	0.408282
H 	0.655702	-2.665511	-0.408282
O 	-2.080000	0.000000	0.000000
H 	-2.715106	0.669552	0.385150
H 	-2.665511	-0.669552	-0.385150
O 	0.000000	0.000000	2.080000
H 	0.361548	0.682585	2.715106
H 	-0.361548	-0.682585	2.665511
O 	0.000000	0.000000	-2.080000
H 	0.424811	0.645117	-2.715106
H 	-0.424811	-0.645117	-2.665511
