24
06/06/2024 02:50, XYZ structure generated by mol3D Class, molSimplify
Fe 	0.000000	0.000000	0.000000
B 	0.000000	2.100000	0.000000
S 	0.593045	3.045000	-1.525573
S 	-0.593045	3.045000	1.525573
O 	-1.014522	2.050470	2.609799
O 	0.542281	3.924878	2.053899
O 	-1.927204	4.028105	1.104117
H 	0.967579	2.161227	-2.489041
H 	-2.240984	4.528105	1.911299
O 	2.080000	0.000000	0.000000
H 	2.715106	0.772007	0.025384
H 	2.665511	-0.772007	-0.025384
O 	-0.000000	-2.080000	0.000000
H 	0.770651	-2.715106	0.052312
H 	-0.770651	-2.665511	-0.052312
O 	-2.080000	0.000000	0.000000
H 	-2.715106	-0.768356	0.079175
H 	-2.665511	0.768356	-0.079175
O 	0.000000	0.000000	2.080000
H 	0.772007	0.025384	2.715106
H 	-0.772007	-0.025384	2.665511
O 	0.000000	0.000000	-2.080000
H 	0.726161	-0.263306	-2.715106
H 	-0.726161	0.263306	-2.665511
