27
06/05/2024 23:20, XYZ structure generated by mol3D Class, molSimplify
Fe 	0.000000	0.000000	0.000000
B 	-0.000000	2.100000	0.000000
N 	-1.051972	2.837816	-0.866881
O 	-0.413292	3.623158	-1.790042
C 	1.051972	2.937779	0.866881
O 	1.914521	2.332817	1.577667
C 	1.019734	4.457205	0.840315
H 	-1.635995	2.153931	-1.348147
H 	0.159278	4.293632	-1.318208
H 	1.178648	4.799876	-0.160796
H 	0.067456	4.799875	1.187654
H 	1.790404	4.841457	1.475388
O 	2.080000	0.000000	0.000000
H 	2.715106	-0.714656	0.293097
H 	2.665511	0.714656	-0.293097
O 	-0.000000	-2.080000	0.000000
H 	-0.724450	-2.715106	0.267978
H 	0.724450	-2.665511	-0.267978
O 	-2.080000	0.000000	0.000000
H 	-2.715106	0.733361	0.242532
H 	-2.665511	-0.733361	-0.242532
O 	0.000000	0.000000	2.080000
H 	0.216790	0.741378	2.715106
H 	-0.216790	-0.741378	2.665511
O 	0.000000	-0.000000	-2.080000
H 	0.190784	-0.748493	-2.715106
H 	-0.190784	0.748493	-2.665511
