30
06/06/2024 00:54, XYZ structure generated by mol3D Class, molSimplify
Fe 	0.000000	0.000000	0.000000
B 	0.000000	2.100000	0.000000
N 	0.963465	2.837816	0.964293
N 	0.212281	3.651820	1.852844
C 	-0.963465	2.937779	-0.964293
O 	-1.753444	2.332817	-1.754952
N 	-0.934911	4.407223	-0.935715
C 	-0.021173	5.106959	-0.021191
H 	1.498352	2.153931	1.499640
H 	0.846303	4.137349	2.487413
H 	-0.322604	4.335704	1.317492
H 	-1.549120	4.941307	-1.550452
H 	0.648854	5.720330	-0.586647
H 	-0.587206	5.720328	0.648350
H 	0.539934	4.389550	0.540398
O 	2.080000	-0.000000	0.000000
H 	2.715106	-0.727393	0.259884
H 	2.665511	0.727393	-0.259884
O 	0.000000	-2.080000	0.000000
H 	-0.736019	-2.715106	0.234340
H 	0.736019	-2.665511	-0.234340
O 	-2.080000	0.000000	0.000000
H 	-2.715106	0.743749	0.208511
H 	-2.665511	-0.743749	-0.208511
O 	0.000000	0.000000	2.080000
H 	0.182428	0.750573	2.715106
H 	-0.182428	-0.750573	2.665511
O 	0.000000	0.000000	-2.080000
H 	-0.422937	0.646347	-2.715106
H 	0.422937	-0.646347	-2.665511
