38
06/05/2024 22:39, XYZ structure generated by mol3D Class, molSimplify
Fe 	0.000000	0.000000	0.000000
B 	-0.000000	2.100000	0.000000
N 	-0.350183	2.837816	-1.317383
C 	-0.360562	4.307261	-1.356427
C 	-1.498236	4.870322	-1.910706
C 	-1.406249	6.267771	-2.112516
C 	-0.519011	7.052106	-1.528014
C 	0.547234	6.431014	-0.939104
C 	0.591213	5.062788	-0.821129
C 	0.350183	2.937779	1.317383
O 	0.637311	2.332817	2.397552
N 	0.339805	4.407223	1.278340
C 	0.007696	5.106959	0.028951
H 	-0.573425	2.303733	-2.157215
H 	-2.367757	4.300232	-2.163350
H 	-2.104085	6.720540	-2.785514
H 	-0.628664	8.116404	-1.515949
H 	1.359087	7.018920	-0.564721
H 	1.399735	4.601915	-0.293124
H 	0.563047	4.941307	2.118172
H 	-0.855533	5.720330	0.182290
H 	0.833127	5.720328	-0.266585
H 	-0.196246	4.389550	-0.738273
O 	2.080000	-0.000000	0.000000
H 	2.715106	-0.681146	-0.364252
H 	2.665511	0.681146	0.364252
O 	0.000000	-2.080000	0.000000
H 	-0.668019	-2.715106	-0.387802
H 	0.668019	-2.665511	0.387802
O 	-2.080000	0.000000	0.000000
H 	-2.715106	0.654078	-0.410879
H 	-2.665511	-0.654078	0.410879
O 	0.000000	0.000000	2.080000
H 	-0.497911	0.590529	2.715106
H 	0.497911	-0.590529	2.665511
O 	0.000000	-0.000000	-2.080000
H 	0.518216	0.572793	-2.715106
H 	-0.518216	-0.572793	-2.665511
