30
06/05/2024 22:51, XYZ structure generated by mol3D Class, molSimplify
Fe 	0.000000	0.000000	0.000000
B 	0.000000	2.100000	0.000000
N 	-0.230565	2.837816	1.343490
C 	-1.430616	3.680482	1.240088
C 	-0.415040	1.852216	2.418415
C 	0.230565	2.937779	-1.343490
Cl 	0.464697	1.818704	-2.707768
Cl 	-1.190672	3.963331	-1.654499
Cl 	1.674173	3.963332	-1.162835
H 	-2.279237	3.067115	1.019809
H 	-1.589782	4.189811	2.167531
H 	-1.296334	4.397890	0.457659
H 	-1.263658	1.238845	2.198135
H 	0.458467	1.238848	2.493680
H 	-0.574204	2.361548	3.345856
O 	2.080000	0.000000	0.000000
H 	2.715106	0.716283	0.289100
H 	2.665511	-0.716283	-0.289100
O 	-0.000000	-2.080000	0.000000
H 	0.705757	-2.715106	0.313921
H 	-0.705757	-2.665511	-0.313921
O 	-2.080000	0.000000	0.000000
H 	-2.715106	-0.694372	0.338361
H 	-2.665511	0.694372	-0.338361
O 	0.000000	0.000000	2.080000
H 	-0.768164	0.081015	2.715106
H 	0.768164	-0.081015	2.665511
O 	0.000000	0.000000	-2.080000
H 	-0.759056	0.143086	-2.715106
H 	0.759056	-0.143086	-2.665511
