33
06/06/2024 00:47, XYZ structure generated by mol3D Class, molSimplify
Fe 	0.000000	0.000000	0.000000
B 	0.000000	2.100000	0.000000
N 	-1.141839	2.837816	-0.744534
C 	-1.175680	4.307261	-0.766600
C 	-2.348507	4.981670	-0.469590
C 	-2.298115	6.368437	-0.745977
C 	-1.184971	7.057835	-0.918182
C 	-0.047955	6.331507	-1.139753
C 	-0.048461	4.963012	-1.016815
C 	1.141839	2.937779	0.744534
O 	2.078073	2.332817	1.355003
H 	-1.869761	2.303733	-1.219174
H 	-3.214087	4.497846	-0.067613
H 	-3.226474	6.895194	-0.820652
H 	-1.173486	8.127291	-0.886039
H 	0.855236	6.836069	-1.412817
H 	0.867770	4.420791	-1.123671
H 	1.117207	4.007375	0.728472
O 	2.080000	-0.000000	0.000000
H 	2.715106	-0.672459	0.380052
H 	2.665511	0.672459	-0.380052
O 	-0.000000	-2.080000	0.000000
H 	-0.685312	-2.715106	0.356352
H 	0.685312	-2.665511	-0.356352
O 	-2.080000	0.000000	0.000000
H 	-2.715106	0.697332	0.332218
H 	-2.665511	-0.697332	-0.332218
O 	0.000000	0.000000	2.080000
H 	0.307679	0.708501	2.715106
H 	-0.307679	-0.708501	2.665511
O 	0.000000	-0.000000	-2.080000
H 	-0.602641	0.483181	-2.715106
H 	0.602641	-0.483181	-2.665511
