26
06/05/2024 23:09, XYZ structure generated by mol3D Class, molSimplify
Fe 	0.000000	0.000000	0.000000
B 	0.000000	2.100000	0.000000
S 	-1.633556	3.045000	0.102817
C 	-3.006578	1.868803	0.189235
N 	-3.963117	1.049385	0.249440
S 	1.633556	3.045000	-0.102817
O 	2.794524	2.050470	-0.175889
O 	1.635974	3.924878	-1.355049
N 	1.816865	4.056850	1.325524
H 	1.815253	3.470438	2.160100
H 	2.698467	4.566850	1.270035
O 	2.080000	0.000000	0.000000
H 	2.715106	-0.172059	-0.753018
H 	2.665511	0.172059	0.753018
O 	0.000000	-2.080000	0.000000
H 	-0.145675	-2.715106	-0.758564
H 	0.145675	-2.665511	0.758564
O 	-2.080000	0.000000	0.000000
H 	-2.715106	0.145675	-0.758564
H 	-2.665511	-0.145675	0.758564
O 	0.000000	0.000000	2.080000
H 	-0.763185	0.119112	2.715106
H 	0.763185	-0.119112	2.665511
O 	0.000000	0.000000	-2.080000
H 	0.092405	-0.766878	-2.715106
H 	-0.092405	0.766878	-2.665511
