29
06/05/2024 23:58, XYZ structure generated by mol3D Class, molSimplify
Fe 	0.000000	0.000000	0.000000
B 	0.000000	2.100000	-0.000000
C 	-0.991164	2.900000	0.968295
C 	0.991164	2.900000	-0.968295
O 	1.778457	2.264550	-1.737423
N 	0.991164	4.370000	-0.968295
C 	0.080532	5.105000	-0.078674
H 	-0.421197	3.515161	1.632836
H 	-1.642222	3.515159	0.382972
H 	-1.572914	2.204679	1.536622
H 	1.623031	4.880000	-1.585582
H 	0.650499	5.720161	0.585867
H 	-0.570527	5.720159	-0.663996
H 	-0.501218	4.409679	0.489653
O 	2.080000	0.000000	0.000000
H 	2.715106	-0.096314	-0.766396
H 	2.665511	0.096314	0.766396
O 	0.000000	-2.080000	0.000000
H 	-0.069509	-2.715106	-0.769291
H 	0.069509	-2.665511	0.769291
O 	-2.080000	0.000000	0.000000
H 	-2.715106	0.042618	-0.771248
H 	-2.665511	-0.042618	0.771248
O 	0.000000	0.000000	2.080000
H 	-0.772266	0.015676	2.715106
H 	0.772266	-0.015676	2.665511
O 	0.000000	-0.000000	-2.080000
H 	0.771869	0.029287	-2.715106
H 	-0.771869	-0.029287	-2.665511
