33
06/06/2024 01:12, XYZ structure generated by mol3D Class, molSimplify
Fe 	0.000000	0.000000	0.000000
B 	0.000000	2.100000	0.000000
O 	-1.319499	1.387173	0.028252
C 	-2.528331	2.131790	0.054134
C 	-3.535927	1.761346	0.929398
C 	-4.781084	2.379030	0.664632
C 	-4.938072	3.460168	-0.077333
C 	-3.880949	3.812813	-0.869534
C 	-2.671396	3.170055	-0.761206
N 	1.319499	1.287213	-0.028252
C 	2.476832	1.912434	-0.053032
H 	-3.386260	1.070731	1.732860
H 	-5.656367	1.939603	1.095541
H 	-5.843829	4.029542	-0.059496
H 	-3.997277	4.600667	-1.584135
H 	-1.837179	3.509221	-1.339089
H 	2.507195	2.982003	-0.053682
H 	3.387713	1.351348	-0.072535
O 	2.080000	0.000000	0.000000
H 	2.715106	0.254647	0.729243
H 	2.665511	-0.254647	-0.729243
O 	-0.000000	-2.080000	0.000000
H 	0.229042	-2.715106	0.737685
H 	-0.229042	-2.665511	-0.737685
O 	-2.080000	0.000000	0.000000
H 	-2.715106	-0.203157	0.745229
H 	-2.665511	0.203157	-0.745229
O 	0.000000	0.000000	2.080000
H 	0.751866	-0.177026	2.715106
H 	-0.751866	0.177026	2.665511
O 	0.000000	-0.000000	-2.080000
H 	-0.727160	-0.260534	-2.715106
H 	0.727160	0.260534	-2.665511
