32
06/05/2024 23:48, XYZ structure generated by mol3D Class, molSimplify
Fe 	0.000000	0.000000	0.000000
B 	0.000000	2.100000	0.000000
O 	-1.135218	2.850000	-0.631491
S 	-2.271041	1.738786	-1.263320
O 	-1.592731	0.858904	-2.315926
O 	-2.807653	0.858907	-0.131888
C 	-3.640871	2.643786	-2.025319
O 	1.135218	2.850000	0.631491
C 	2.209890	2.140000	1.229303
O 	2.209890	0.869100	1.229303
C 	3.360244	2.900000	1.869214
F 	3.949713	3.664640	0.954472
F 	2.893914	3.664637	2.852457
F 	4.243662	2.035722	2.360636
H 	-4.115105	3.258947	-1.289399
H 	-3.265703	3.258945	-2.816350
H 	-4.351591	1.948465	-2.420674
O 	2.080000	-0.000000	0.000000
H 	2.715106	0.451725	-0.626565
H 	2.665511	-0.451725	0.626565
O 	-0.000000	-2.080000	0.000000
H 	0.473317	-2.715106	-0.610419
H 	-0.473317	-2.665511	0.610419
O 	-2.080000	0.000000	0.000000
H 	-2.715106	0.077923	0.768484
H 	-2.665511	-0.077923	-0.768484
O 	0.000000	0.000000	2.080000
H 	0.765297	0.104695	2.715106
H 	-0.765297	-0.104695	2.665511
O 	0.000000	0.000000	-2.080000
H 	0.210185	0.743278	-2.715106
H 	-0.210185	-0.743278	-2.665511
