25
06/05/2024 23:04, XYZ structure generated by mol3D Class, molSimplify
Fe 	0.000000	0.000000	0.000000
B 	0.000000	2.100000	0.000000
N 	-1.338514	2.875000	-0.101266
C 	-2.474654	2.217175	-0.187222
N 	1.338514	2.875000	0.101266
C 	2.474654	2.217175	0.187222
H 	-2.474654	1.147175	-0.187222
H 	-3.398660	2.752175	-0.257128
H 	2.474654	1.147175	0.187222
H 	3.398660	2.752175	0.257128
O 	2.080000	-0.000000	0.000000
H 	2.715106	0.065433	0.769648
H 	2.665511	-0.065433	-0.769648
O 	-0.000000	-2.080000	0.000000
H 	0.038533	-2.715106	0.771463
H 	-0.038533	-2.665511	-0.771463
O 	-2.080000	0.000000	0.000000
H 	-2.715106	-0.011585	0.772338
H 	-2.665511	0.011585	-0.772338
O 	0.000000	0.000000	2.080000
H 	0.772272	0.015376	2.715106
H 	-0.772272	-0.015376	2.665511
O 	0.000000	-0.000000	-2.080000
H 	-0.772379	-0.008377	-2.715106
H 	0.772379	0.008377	-2.665511
