29
06/05/2024 23:44, XYZ structure generated by mol3D Class, molSimplify
Fe 	0.000000	0.000000	0.000000
B 	-0.000000	2.100000	0.000000
O 	-1.418371	2.581681	-0.078786
C 	-2.484025	1.645050	-0.137980
O 	-2.236048	0.398654	-0.124206
C 	-3.921308	2.133154	-0.217817
S 	1.418371	3.346642	0.078786
O 	2.751505	2.598614	0.152838
O 	1.395383	4.225399	-1.174025
O 	1.237805	4.328492	1.467118
H 	-4.145296	2.725377	0.644738
H 	-4.048387	2.725375	-1.099874
H 	-4.582012	1.292306	-0.254517
H 	1.988266	4.988091	1.508804
O 	2.080000	0.000000	0.000000
H 	2.715106	-0.175875	-0.752135
H 	2.665511	0.175875	0.752135
O 	-0.000000	-2.080000	0.000000
H 	-0.149519	-2.715106	-0.757815
H 	0.149519	-2.665511	0.757815
O 	-2.080000	0.000000	0.000000
H 	-2.715106	0.122980	-0.762572
H 	-2.665511	-0.122980	0.762572
O 	0.000000	0.000000	2.080000
H 	-0.766399	0.096292	2.715106
H 	0.766399	-0.096292	2.665511
O 	0.000000	-0.000000	-2.080000
H 	0.069487	-0.769293	-2.715106
H 	-0.069487	0.769293	-2.665511
