28
06/05/2024 22:46, XYZ structure generated by mol3D Class, molSimplify
Fe 	0.000000	0.000000	0.000000
B 	0.000000	2.100000	0.000000
N 	-1.337549	2.875000	0.113301
C 	-1.337549	4.345000	0.113301
O 	-2.434253	4.980450	0.206200
C 	-0.025888	5.105000	0.002193
N 	1.337549	2.875000	-0.113301
N 	2.434253	2.239550	-0.206200
N 	3.530957	1.604100	-0.299099
H 	-2.217743	2.365000	0.187860
H 	0.606937	4.846508	0.825366
H 	0.459453	4.846509	-0.915699
H 	-0.220715	6.156984	0.018696
O 	2.080000	-0.000000	0.000000
H 	2.715106	-0.148522	-0.758011
H 	2.665511	0.148522	0.758011
O 	0.000000	-2.080000	0.000000
H 	-0.121977	-2.715106	-0.762733
H 	0.121977	-2.665511	0.762733
O 	-2.080000	0.000000	0.000000
H 	-2.715106	0.095284	-0.766525
H 	-2.665511	-0.095284	0.766525
O 	0.000000	0.000000	2.080000
H 	-0.769384	0.068474	2.715106
H 	0.769384	-0.068474	2.665511
O 	0.000000	-0.000000	-2.080000
H 	0.771305	0.041582	-2.715106
H 	-0.771305	-0.041582	-2.665511
