33
06/06/2024 00:42, XYZ structure generated by mol3D Class, molSimplify
Fe 	0.000000	0.000000	0.000000
B 	0.000000	2.100000	0.000000
S 	-1.388303	3.268533	0.528437
C 	-2.817534	2.300314	1.072452
C 	-3.680505	1.772408	0.126322
C 	-4.899110	1.295619	0.664582
C 	-5.097676	1.021594	1.941100
C 	-4.172834	1.513677	2.819719
C 	-3.018896	2.109487	2.371020
C 	1.388303	2.694448	-0.528437
O 	2.321846	1.908687	-0.883775
O 	1.577359	4.099965	-0.600398
H 	-3.446818	1.729090	-0.916949
H 	-5.716609	1.146732	-0.009532
H 	-5.937165	0.445467	2.270091
H 	-4.350250	1.433633	3.871867
H 	-2.275792	2.422541	3.074364
H 	2.445048	4.471495	-0.930671
O 	2.080000	0.000000	0.000000
H 	2.715106	0.482327	0.603324
H 	2.665511	-0.482327	-0.603324
O 	-0.000000	-2.080000	0.000000
H 	0.460978	-2.715106	0.619790
H 	-0.460978	-2.665511	-0.619790
O 	-2.080000	0.000000	0.000000
H 	-2.715106	-0.152139	-0.757294
H 	-2.665511	0.152139	0.757294
O 	0.000000	0.000000	2.080000
H 	-0.751523	-0.178476	2.715106
H 	0.751523	0.178476	2.665511
O 	0.000000	0.000000	-2.080000
H 	0.771096	-0.045280	-2.715106
H 	-0.771096	0.045280	-2.665511
