26
06/06/2024 01:16, XYZ structure generated by mol3D Class, molSimplify
Fe 	0.000000	0.000000	0.000000
B 	0.000000	2.100000	0.000000
N 	-1.202297	2.637386	-0.817433
S 	1.202297	3.307636	0.817433
O 	2.289263	2.523652	1.556454
O 	1.848195	4.188577	-0.254497
N 	0.329121	4.320708	1.961482
H 	-0.859912	3.206273	-1.591733
H 	-1.741744	1.853243	-1.184199
H 	-0.101351	3.733586	2.675893
H 	0.977980	4.972447	2.402637
O 	2.080000	-0.000000	-0.000000
H 	2.715106	0.358968	-0.683946
H 	2.665511	-0.358968	0.683946
O 	0.000000	-2.080000	0.000000
H 	0.382619	-2.715106	-0.671001
H 	-0.382619	-2.665511	0.671001
O 	-2.080000	0.000000	0.000000
H 	-2.715106	-0.405803	-0.657239
H 	-2.665511	0.405803	0.657239
O 	0.000000	0.000000	2.080000
H 	-0.642677	-0.428494	2.715106
H 	0.642677	0.428494	2.665511
O 	0.000000	-0.000000	-2.080000
H 	0.627331	-0.450662	-2.715106
H 	-0.627331	0.450662	-2.665511
