32
06/06/2024 03:23, XYZ structure generated by mol3D Class, molSimplify
Fe 	0.000000	0.000000	0.000000
B 	0.000000	2.100000	-0.000000
O 	0.130706	2.776364	1.332459
C 	0.246707	1.998867	2.515017
O 	0.239785	0.729946	2.444457
C 	0.379155	2.684250	3.865242
C 	-0.130706	2.976053	-1.332459
O 	-0.241448	2.402992	-2.461407
N 	-0.122700	4.443764	-1.250846
C 	0.005392	5.106601	0.054964
H 	1.257507	3.295291	3.870429
H 	-0.481448	3.295289	4.041008
H 	0.454641	1.944642	4.634775
H 	-0.206025	5.002248	-2.100289
H 	0.883743	5.717642	0.060151
H 	-0.855211	5.717640	0.230731
H 	0.080878	4.366993	0.824498
O 	2.080000	0.000000	0.000000
H 	2.715106	-0.499717	-0.589001
H 	2.665511	0.499717	0.589001
O 	-0.000000	-2.080000	0.000000
H 	-0.478857	-2.715106	-0.606082
H 	0.478857	-2.665511	0.606082
O 	-2.080000	0.000000	0.000000
H 	-2.715106	0.457414	-0.622425
H 	-2.665511	-0.457414	0.622425
O 	0.000000	0.000000	2.080000
H 	-0.638009	0.435413	2.715106
H 	0.638009	-0.435413	2.665511
O 	0.000000	-0.000000	-2.080000
H 	0.652816	0.412881	-2.715106
H 	-0.652816	-0.412881	-2.665511
