27
06/06/2024 03:12, XYZ structure generated by mol3D Class, molSimplify
Fe 	0.000000	0.000000	0.000000
B 	0.000000	2.100000	0.000000
N 	0.291444	2.875000	-1.310319
C 	0.291444	4.345000	-1.310319
O 	0.530409	4.980450	-2.384696
N 	0.015042	5.080000	-0.067629
N 	-0.291444	2.875000	1.310319
O 	-0.549043	2.190000	2.468472
O 	-0.291444	4.101150	1.310319
H 	0.483233	2.365000	-2.172593
H 	-0.176747	4.570000	0.794645
H 	0.015042	6.100000	-0.067629
O 	2.080000	-0.000000	0.000000
H 	2.715106	0.671210	0.382253
H 	2.665511	-0.671210	-0.382253
O 	-0.000000	-2.080000	0.000000
H 	0.657461	-2.715106	0.405445
H 	-0.657461	-2.665511	-0.405445
O 	-2.080000	0.000000	0.000000
H 	-2.715106	-0.642910	0.428143
H 	-2.665511	0.642910	-0.428143
O 	0.000000	0.000000	2.080000
H 	0.764259	-0.112019	2.715106
H 	-0.764259	0.112019	2.665511
O 	0.000000	0.000000	-2.080000
H 	0.692238	0.342705	-2.715106
H 	-0.692238	-0.342705	-2.665511
