32
06/05/2024 23:57, XYZ structure generated by mol3D Class, molSimplify
Fe 	0.000000	0.000000	0.000000
B 	0.000000	2.100000	-0.000000
O 	-1.101431	1.423636	0.761171
C 	-2.078951	2.201133	1.436710
C 	-2.445898	1.858967	2.727771
C 	-3.616676	2.510404	3.182701
C 	-4.131932	3.595004	2.633001
C 	-3.678314	3.918067	1.384277
C 	-2.623972	3.242450	0.818770
C 	1.101431	1.223947	-0.761171
C 	1.998998	0.510043	-1.381457
H 	-1.894067	1.164981	3.326741
H 	-4.119532	2.095394	4.031112
H 	-4.864970	4.189008	3.137693
H 	-4.151191	4.708394	0.839603
H 	-2.238593	3.558277	-0.128138
H 	2.735580	-0.075818	-1.890490
O 	2.080000	0.000000	-0.000000
H 	2.715106	0.763915	-0.114339
H 	2.665511	-0.763915	0.114339
O 	0.000000	-2.080000	0.000000
H 	0.767440	-2.715106	-0.087609
H 	-0.767440	-2.665511	0.087609
O 	-2.080000	0.000000	0.000000
H 	-2.715106	-0.768885	0.073865
H 	-2.665511	0.768885	-0.073865
O 	0.000000	0.000000	2.080000
H 	0.658689	0.403446	2.715106
H 	-0.658689	-0.403446	2.665511
O 	0.000000	0.000000	-2.080000
H 	0.672368	-0.380213	-2.715106
H 	-0.672368	0.380213	-2.665511
