29
06/06/2024 02:03, XYZ structure generated by mol3D Class, molSimplify
Fe 	0.000000	0.000000	0.000000
B 	0.000000	2.100000	0.000000
O 	-0.847963	2.812827	-1.011353
S 	-1.662431	1.665171	-1.982758
O 	-0.636755	0.787945	-2.704381
O 	-2.551881	0.787948	-1.098656
C 	-2.685639	2.525316	-3.203124
N 	0.847963	2.912787	1.011353
C 	1.591711	2.287566	1.898412
H 	-3.402731	3.138621	-2.698608
H 	-2.063789	3.138618	-3.821236
H 	-3.195277	1.807192	-3.810962
H 	1.611223	1.217997	1.921684
H 	2.177079	2.848652	2.596572
O 	2.080000	0.000000	0.000000
H 	2.715106	-0.189444	0.748833
H 	2.665511	0.189444	-0.748833
O 	-0.000000	-2.080000	0.000000
H 	-0.215463	-2.715106	0.741765
H 	0.215463	-2.665511	-0.741765
O 	-2.080000	0.000000	0.000000
H 	-2.715106	0.538480	0.553786
H 	-2.665511	-0.538480	-0.553786
O 	0.000000	0.000000	2.080000
H 	-0.215463	0.741765	2.715106
H 	0.215463	-0.741765	2.665511
O 	0.000000	-0.000000	-2.080000
H 	0.540599	0.551718	-2.715106
H 	-0.540599	-0.551718	-2.665511
