34
06/06/2024 03:03, XYZ structure generated by mol3D Class, molSimplify
Fe 	0.000000	0.000000	0.000000
B 	0.000000	2.100000	0.000000
C 	0.029185	2.694448	-1.485187
C 	0.032993	4.040973	-1.678947
S 	-0.029185	3.268533	1.485187
C 	-0.059231	2.300314	3.014157
C 	1.131455	2.013520	3.661135
C 	1.017294	1.012911	4.655016
C 	-0.121316	0.625509	5.200455
C 	-1.264923	0.998580	4.550508
C 	-1.222222	1.869985	3.489035
H 	0.045708	2.032898	-2.326007
H 	0.052511	4.438510	-2.672165
H 	0.016470	4.702523	-0.838127
H 	2.053896	2.504139	3.430277
H 	1.916000	0.537022	4.987818
H 	-0.147485	0.050592	6.102500
H 	-2.206688	0.606290	4.873133
H 	-2.134381	2.204864	3.041014
O 	2.080000	0.000000	0.000000
H 	2.715106	0.373392	0.676179
H 	2.665511	-0.373392	-0.676179
O 	-0.000000	-2.080000	0.000000
H 	0.349566	-2.715106	0.688798
H 	-0.349566	-2.665511	-0.688798
O 	-2.080000	0.000000	0.000000
H 	-2.715106	-0.325315	0.700578
H 	-2.665511	0.325315	-0.700578
O 	0.000000	0.000000	2.080000
H 	0.772328	-0.012239	2.715106
H 	-0.772328	0.012239	2.665511
O 	0.000000	-0.000000	-2.080000
H 	-0.759690	-0.139682	-2.715106
H 	0.759690	0.139682	-2.665511
