23
06/05/2024 23:28, XYZ structure generated by mol3D Class, molSimplify
Fe 	0.000000	0.000000	0.000000
B 	0.000000	2.100000	-0.000000
F 	-0.715938	2.738672	-1.033262
O 	0.715938	2.918414	1.033262
C 	1.357874	2.054707	1.959723
F 	0.448493	1.287393	2.553992
F 	2.233707	1.287396	1.317034
F 	1.992672	2.780368	2.875882
O 	2.080000	-0.000000	0.000000
H 	2.715106	-0.393731	0.664542
H 	2.665511	0.393731	-0.664542
O 	-0.000000	-2.080000	0.000000
H 	-0.416683	-2.715106	0.650396
H 	0.416683	-2.665511	-0.650396
O 	-2.080000	0.000000	0.000000
H 	-2.715106	0.439128	0.635458
H 	-2.665511	-0.439128	-0.635458
O 	0.000000	0.000000	2.080000
H 	-0.673252	0.378645	2.715106
H 	0.673252	-0.378645	2.665511
O 	0.000000	0.000000	-2.080000
H 	0.354918	-0.686056	-2.715106
H 	-0.354918	0.686056	-2.665511
