33
06/06/2024 01:53, XYZ structure generated by mol3D Class, molSimplify
Fe 	0.000000	0.000000	0.000000
B 	-0.000000	2.100000	0.000000
N 	1.125910	2.837816	0.768409
C 	-1.125910	2.937779	-0.768409
C 	-2.102238	1.982164	-1.434731
C 	-1.872162	3.813531	0.224851
C 	-0.472945	3.813532	-1.825335
H 	0.714363	3.422523	1.495834
H 	1.750982	2.153931	1.195007
H 	-2.561892	1.365680	-0.690711
H 	-2.855189	2.542430	-1.948606
H 	-1.576915	1.365681	-2.133934
H 	-1.184882	4.486236	0.693910
H 	-2.625112	4.373798	-0.289023
H 	-2.331813	3.197043	0.968869
H 	0.214339	4.486234	-1.356279
H 	0.052377	3.197048	-2.524538
H 	-1.225897	4.373796	-2.339208
O 	2.080000	-0.000000	0.000000
H 	2.715106	-0.341715	-0.692727
H 	2.665511	0.341715	0.692727
O 	-0.000000	-2.080000	0.000000
H 	-0.317331	-2.715106	-0.704231
H 	0.317331	-2.665511	0.704231
O 	-2.080000	0.000000	0.000000
H 	-2.715106	-0.235400	-0.735681
H 	-2.665511	0.235400	0.735681
O 	0.000000	0.000000	2.080000
H 	-0.727018	-0.260931	2.715106
H 	0.727018	0.260931	2.665511
O 	0.000000	-0.000000	-2.080000
H 	-0.335496	-0.695760	-2.715106
H 	0.335496	0.695760	-2.665511
