31
06/06/2024 00:39, XYZ structure generated by mol3D Class, molSimplify
Fe 	0.000000	0.000000	0.000000
B 	0.000000	2.100000	0.000000
O 	-0.562235	1.618319	-1.304559
C 	-0.984656	2.554950	-2.284704
C 	-2.193393	2.361617	-2.932888
C 	-2.368403	3.178149	-4.075122
C 	-1.667464	4.267642	-4.331453
C 	-0.518516	4.435430	-3.609501
C 	-0.213419	3.599580	-2.562522
S 	0.562235	0.853358	1.304559
H 	-2.928131	1.658577	-2.600029
H 	-3.121012	2.893057	-4.780248
H 	-1.981775	4.980720	-5.064685
H 	0.152691	5.229070	-3.863502
H 	0.653498	3.792177	-1.965646
H 	1.031827	1.518084	2.394157
O 	2.080000	0.000000	0.000000
H 	2.715106	0.247145	0.731819
H 	2.665511	-0.247145	-0.731819
O 	0.000000	-2.080000	0.000000
H 	0.221455	-2.715106	0.739998
H 	-0.221455	-2.665511	-0.739998
O 	-2.080000	0.000000	0.000000
H 	-2.715106	-0.195494	0.747276
H 	-2.665511	0.195494	-0.747276
O 	0.000000	0.000000	2.080000
H 	0.753644	-0.169295	2.715106
H 	-0.753644	0.169295	2.665511
O 	0.000000	0.000000	-2.080000
H 	-0.739937	-0.221660	-2.715106
H 	0.739937	0.221660	-2.665511
