25
06/05/2024 23:09, XYZ structure generated by mol3D Class, molSimplify
Fe 	0.000000	0.000000	0.000000
B 	0.000000	2.100000	-0.000000
S 	-0.776212	3.045000	1.441031
O 	0.285494	3.924882	2.105008
O 	-1.914816	3.924878	0.919808
O 	-1.392583	1.933786	2.585317
S 	0.776212	3.045000	-1.441031
C 	1.428628	1.868803	-2.652234
N 	1.883144	1.049385	-3.496038
H 	-1.803278	2.433786	3.347767
O 	2.080000	-0.000000	-0.000000
H 	2.715106	-0.392020	-0.665553
H 	2.665511	0.392020	0.665553
O 	0.000000	-2.080000	0.000000
H 	-0.368553	-2.715106	-0.678829
H 	0.368553	-2.665511	0.678829
O 	-2.080000	0.000000	0.000000
H 	-2.715106	0.344638	-0.691277
H 	-2.665511	-0.344638	0.691277
O 	0.000000	0.000000	2.080000
H 	-0.770983	-0.047173	2.715106
H 	0.770983	0.047173	2.665511
O 	0.000000	-0.000000	-2.080000
H 	0.640657	-0.431507	-2.715106
H 	-0.640657	0.431507	-2.665511
