31
06/06/2024 01:39, XYZ structure generated by mol3D Class, molSimplify
Fe 	0.000000	0.000000	0.000000
B 	0.000000	2.100000	0.000000
N 	-0.475709	2.637386	1.373833
C 	-1.681665	3.457253	1.188390
C 	-0.783315	1.507297	2.262190
S 	0.475709	3.307636	-1.373833
C 	0.984341	2.380441	-2.842745
H 	-2.454982	2.860481	0.751649
H 	-2.010059	3.828220	2.136779
H 	-1.457756	4.279833	0.541763
H 	-1.556630	0.910521	1.825448
H 	0.094489	0.910523	2.397172
H 	-1.111708	1.878267	3.210578
H 	1.825583	1.764536	-2.602176
H 	0.174464	1.764538	-3.173899
H 	1.253658	3.064129	-3.620524
O 	2.080000	-0.000000	0.000000
H 	2.715106	-0.744726	-0.204994
H 	2.665511	0.744726	0.204994
O 	-0.000000	-2.080000	0.000000
H 	-0.737118	-2.715106	-0.230860
H 	0.737118	-2.665511	0.230860
O 	-2.080000	0.000000	0.000000
H 	-2.715106	0.728612	-0.256444
H 	-2.665511	-0.728612	0.256444
O 	0.000000	0.000000	2.080000
H 	-0.664791	0.393310	2.715106
H 	0.664791	-0.393310	2.665511
O 	0.000000	-0.000000	-2.080000
H 	0.768485	-0.077910	-2.715106
H 	-0.768485	0.077910	-2.665511
