24
06/06/2024 02:27, XYZ structure generated by mol3D Class, molSimplify
Fe 	0.000000	0.000000	0.000000
B 	0.000000	2.100000	-0.000000
N 	-1.197718	2.837816	0.650845
N 	-2.149080	2.172358	1.167819
N 	-3.100442	1.506900	1.684793
C 	1.197718	2.937779	-0.650845
Cl 	2.413967	1.818704	-1.311760
Cl 	0.561899	3.963331	-1.959423
Cl 	1.949746	3.963332	0.594585
O 	2.080000	-0.000000	0.000000
H 	2.715106	0.660035	0.401240
H 	2.665511	-0.660035	-0.401240
O 	0.000000	-2.080000	0.000000
H 	0.645630	-2.715106	0.424031
H 	-0.645630	-2.665511	-0.424031
O 	-2.080000	0.000000	0.000000
H 	-2.715106	-0.630438	0.446305
H 	-2.665511	0.630438	-0.446305
O 	0.000000	0.000000	2.080000
H 	0.468035	-0.614478	2.715106
H 	-0.468035	0.614478	2.665511
O 	0.000000	-0.000000	-2.080000
H 	-0.489195	-0.597769	-2.715106
H 	0.489195	0.597769	-2.665511
