32
06/06/2024 00:57, XYZ structure generated by mol3D Class, molSimplify
Fe 	0.000000	0.000000	0.000000
B 	0.000000	2.100000	0.000000
S 	-1.097314	0.931467	1.001266
C 	-2.226978	1.899686	2.032048
C 	-2.483122	1.489383	3.329972
C 	-3.585996	2.141569	3.930282
C 	-4.116176	3.270193	3.495388
C 	-3.770444	3.656673	2.230258
C 	-2.794443	2.990009	1.529634
C 	1.097314	1.505552	-1.001266
C 	1.991527	1.021131	-1.817207
H 	-1.899894	0.746618	3.833009
H 	-4.020668	1.688833	4.796879
H 	-4.780570	3.850950	4.100534
H 	-4.267085	4.490279	1.779315
H 	-2.488880	3.352721	0.570483
H 	2.725356	0.623594	-2.486803
O 	2.080000	0.000000	0.000000
H 	2.715106	-0.762142	-0.125618
H 	2.665511	0.762142	0.125618
O 	-0.000000	-2.080000	0.000000
H 	-0.757293	-2.715106	-0.152140
H 	0.757293	-2.665511	0.152140
O 	-2.080000	0.000000	0.000000
H 	-2.715106	0.751523	-0.178476
H 	-2.665511	-0.751523	0.178476
O 	0.000000	0.000000	2.080000
H 	-0.204595	0.744836	2.715106
H 	0.204595	-0.744836	2.665511
O 	0.000000	-0.000000	-2.080000
H 	0.686022	-0.354984	-2.715106
H 	-0.686022	0.354984	-2.665511
